* NGSPICE file created from arbiter_cell_two_bits_fc.ext - technology: sky130A

* Black-box entry subcircuit for sky130_fd_sc_hd__tapvpwrvgnd_1 abstract view
.subckt sky130_fd_sc_hd__tapvpwrvgnd_1 VGND VPWR
.ends

* Black-box entry subcircuit for sky130_ef_sc_hd__decap_12 abstract view
.subckt sky130_ef_sc_hd__decap_12 VGND VNB VPB VPWR
.ends

* Black-box entry subcircuit for sky130_fd_sc_hd__fill_1 abstract view
.subckt sky130_fd_sc_hd__fill_1 VGND VNB VPB VPWR
.ends

* Black-box entry subcircuit for sky130_fd_sc_hd__decap_6 abstract view
.subckt sky130_fd_sc_hd__decap_6 VGND VNB VPB VPWR
.ends

* Black-box entry subcircuit for sky130_fd_sc_hd__decap_4 abstract view
.subckt sky130_fd_sc_hd__decap_4 VGND VNB VPB VPWR
.ends

* Black-box entry subcircuit for sky130_fd_sc_hd__diode_2 abstract view
.subckt sky130_fd_sc_hd__diode_2 DIODE VGND VNB VPB VPWR
.ends

* Black-box entry subcircuit for sky130_fd_sc_hd__decap_3 abstract view
.subckt sky130_fd_sc_hd__decap_3 VGND VNB VPB VPWR
.ends

* Black-box entry subcircuit for sky130_fd_sc_hd__nand2_1 abstract view
.subckt sky130_fd_sc_hd__nand2_1 A B VGND VNB VPB VPWR Y
.ends

* Black-box entry subcircuit for sky130_fd_sc_hd__fill_2 abstract view
.subckt sky130_fd_sc_hd__fill_2 VGND VNB VPB VPWR
.ends

* Black-box entry subcircuit for sky130_fd_sc_hd__decap_8 abstract view
.subckt sky130_fd_sc_hd__decap_8 VGND VNB VPB VPWR
.ends

* Black-box entry subcircuit for sky130_fd_sc_hd__or2_1 abstract view
.subckt sky130_fd_sc_hd__or2_1 A B VGND VNB VPB VPWR X
.ends

* Black-box entry subcircuit for sky130_fd_sc_hd__nor2_1 abstract view
.subckt sky130_fd_sc_hd__nor2_1 A B VGND VNB VPB VPWR Y
.ends

* Black-box entry subcircuit for sky130_fd_sc_hd__or4_1 abstract view
.subckt sky130_fd_sc_hd__or4_1 A B C D VGND VNB VPB VPWR X
.ends

* Black-box entry subcircuit for sky130_fd_sc_hd__inv_1 abstract view
.subckt sky130_fd_sc_hd__inv_1 A VGND VNB VPB VPWR Y
.ends

* Black-box entry subcircuit for sky130_fd_sc_hd__buf_2 abstract view
.subckt sky130_fd_sc_hd__buf_2 A VGND VNB VPB VPWR X
.ends

* Black-box entry subcircuit for sky130_fd_sc_hd__clkbuf_1 abstract view
.subckt sky130_fd_sc_hd__clkbuf_1 A VGND VNB VPB VPWR X
.ends

* Black-box entry subcircuit for sky130_fd_sc_hd__buf_1 abstract view
.subckt sky130_fd_sc_hd__buf_1 A VGND VNB VPB VPWR X
.ends

* Black-box entry subcircuit for sky130_fd_sc_hd__nand2_2 abstract view
.subckt sky130_fd_sc_hd__nand2_2 A B VGND VNB VPB VPWR Y
.ends

* Black-box entry subcircuit for sky130_fd_sc_hd__clkbuf_4 abstract view
.subckt sky130_fd_sc_hd__clkbuf_4 A VGND VNB VPB VPWR X
.ends

.subckt arbiter_cell_two_bits_fc GND VDD g0 g1 gc r0 r1 rc GND_uq0 VDD_uq0
XTAP_188 GND VDD sky130_fd_sc_hd__tapvpwrvgnd_1
XTAP_177 GND VDD sky130_fd_sc_hd__tapvpwrvgnd_1
XTAP_199 GND VDD sky130_fd_sc_hd__tapvpwrvgnd_1
XFILLER_0_27_93 GND GND VDD VDD sky130_ef_sc_hd__decap_12
XFILLER_0_57_391 GND GND VDD VDD sky130_fd_sc_hd__fill_1
XFILLER_0_43_81 GND GND VDD VDD sky130_ef_sc_hd__decap_12
XFILLER_0_7_81 GND GND VDD VDD sky130_ef_sc_hd__decap_12
XFILLER_0_55_317 GND GND VDD VDD sky130_ef_sc_hd__decap_12
XFILLER_0_63_361 GND GND VDD VDD sky130_ef_sc_hd__decap_12
XFILLER_0_23_225 GND GND VDD VDD sky130_ef_sc_hd__decap_12
XFILLER_0_48_15 GND GND VDD VDD sky130_ef_sc_hd__decap_12
XFILLER_0_64_69 GND GND VDD VDD sky130_ef_sc_hd__decap_12
XFILLER_0_3_39 GND GND VDD VDD sky130_ef_sc_hd__decap_12
XFILLER_0_58_177 GND GND VDD VDD sky130_ef_sc_hd__decap_12
XFILLER_0_58_133 GND GND VDD VDD sky130_fd_sc_hd__decap_6
XFILLER_0_39_391 GND GND VDD VDD sky130_fd_sc_hd__fill_1
XFILLER_0_13_51 GND GND VDD VDD sky130_fd_sc_hd__decap_4
XFILLER_0_49_111 GND GND VDD VDD sky130_fd_sc_hd__fill_1
XFILLER_0_64_169 GND GND VDD VDD sky130_ef_sc_hd__decap_12
XFILLER_0_64_125 GND GND VDD VDD sky130_ef_sc_hd__decap_12
XFILLER_0_52_309 GND GND VDD VDD sky130_ef_sc_hd__decap_12
XFILLER_0_45_361 GND GND VDD VDD sky130_ef_sc_hd__decap_12
XFILLER_0_37_317 GND GND VDD VDD sky130_ef_sc_hd__decap_12
XFILLER_0_18_29 GND GND VDD VDD sky130_ef_sc_hd__decap_12
XFILLER_0_55_125 GND GND VDD VDD sky130_ef_sc_hd__decap_12
XFILLER_0_50_27 GND GND VDD VDD sky130_fd_sc_hd__fill_1
XFILLER_0_55_169 GND GND VDD VDD sky130_ef_sc_hd__decap_12
XFILLER_0_11_217 GND GND VDD VDD sky130_fd_sc_hd__decap_6
XFILLER_0_59_69 GND GND VDD VDD sky130_ef_sc_hd__decap_12
XFILLER_0_34_309 GND GND VDD VDD sky130_ef_sc_hd__decap_12
XFILLER_0_6_233 GND GND VDD VDD sky130_ef_sc_hd__decap_12
XFILLER_0_6_277 GND GND VDD VDD sky130_ef_sc_hd__decap_12
XFILLER_0_19_317 GND GND VDD VDD sky130_ef_sc_hd__decap_12
XFILLER_0_24_83 GND GND VDD VDD sky130_fd_sc_hd__fill_1
XFILLER_0_27_361 GND GND VDD VDD sky130_ef_sc_hd__decap_12
XFILLER_0_37_125 GND GND VDD VDD sky130_ef_sc_hd__decap_12
XFILLER_0_52_139 GND GND VDD VDD sky130_fd_sc_hd__fill_1
XFILLER_0_37_169 GND GND VDD VDD sky130_ef_sc_hd__decap_12
XFILLER_0_29_39 GND GND VDD VDD sky130_ef_sc_hd__decap_12
XFILLER_0_61_15 GND GND VDD VDD sky130_ef_sc_hd__decap_12
XFILLER_0_45_27 GND GND VDD VDD sky130_ef_sc_hd__decap_12
XFILLER_0_0_29 GND GND VDD VDD sky130_ef_sc_hd__decap_12
XFILLER_0_56_401 GND GND VDD VDD sky130_fd_sc_hd__decap_6
XFILLER_0_9_27 GND GND VDD VDD sky130_ef_sc_hd__decap_12
XFILLER_0_16_309 GND GND VDD VDD sky130_ef_sc_hd__decap_12
XFILLER_0_51_161 GND GND VDD VDD sky130_fd_sc_hd__decap_6
XFILLER_0_3_225 GND GND VDD VDD sky130_ef_sc_hd__decap_12
XFILLER_0_10_41 GND GND VDD VDD sky130_ef_sc_hd__decap_12
XFILLER_0_10_85 GND GND VDD VDD sky130_ef_sc_hd__decap_12
XFILLER_0_59_261 GND GND VDD VDD sky130_ef_sc_hd__decap_12
XFILLER_0_35_93 GND GND VDD VDD sky130_ef_sc_hd__decap_12
XFILLER_0_19_125 GND GND VDD VDD sky130_ef_sc_hd__decap_12
XFILLER_0_51_81 GND GND VDD VDD sky130_ef_sc_hd__decap_12
XFILLER_0_34_139 GND GND VDD VDD sky130_fd_sc_hd__fill_1
XFILLER_0_30_301 GND GND VDD VDD sky130_fd_sc_hd__decap_6
XFILLER_0_19_169 GND GND VDD VDD sky130_ef_sc_hd__decap_12
XFILLER_0_30_389 GND GND VDD VDD sky130_ef_sc_hd__decap_12
XFILLER_0_30_345 GND GND VDD VDD sky130_ef_sc_hd__decap_12
XANTENNA_x2_B x6/A GND GND VDD VDD sky130_fd_sc_hd__diode_2
XFILLER_0_38_401 GND GND VDD VDD sky130_fd_sc_hd__decap_6
XTAP_507 GND VDD sky130_fd_sc_hd__tapvpwrvgnd_1
XFILLER_0_40_109 GND GND VDD VDD sky130_ef_sc_hd__decap_12
XFILLER_0_33_161 GND GND VDD VDD sky130_fd_sc_hd__decap_6
XTAP_529 GND VDD sky130_fd_sc_hd__tapvpwrvgnd_1
XFILLER_0_56_15 GND GND VDD VDD sky130_ef_sc_hd__decap_12
XTAP_518 GND VDD sky130_fd_sc_hd__tapvpwrvgnd_1
XFILLER_0_48_209 GND GND VDD VDD sky130_ef_sc_hd__decap_12
XFILLER_0_56_253 GND GND VDD VDD sky130_ef_sc_hd__decap_12
XFILLER_0_12_301 GND GND VDD VDD sky130_fd_sc_hd__decap_6
XFILLER_0_16_139 GND GND VDD VDD sky130_fd_sc_hd__fill_1
XFILLER_0_21_51 GND GND VDD VDD sky130_fd_sc_hd__decap_4
XFILLER_0_12_345 GND GND VDD VDD sky130_ef_sc_hd__decap_12
XFILLER_0_12_389 GND GND VDD VDD sky130_ef_sc_hd__decap_12
XFILLER_0_34_3 GND GND VDD VDD sky130_ef_sc_hd__decap_12
XFILLER_0_62_289 GND GND VDD VDD sky130_ef_sc_hd__decap_12
XFILLER_0_62_245 GND GND VDD VDD sky130_fd_sc_hd__decap_6
XFILLER_0_30_153 GND GND VDD VDD sky130_ef_sc_hd__decap_12
XFILLER_0_7_361 GND GND VDD VDD sky130_ef_sc_hd__decap_12
XFILLER_0_15_161 GND GND VDD VDD sky130_fd_sc_hd__decap_6
XFILLER_0_22_109 GND GND VDD VDD sky130_ef_sc_hd__decap_12
XFILLER_0_30_197 GND GND VDD VDD sky130_ef_sc_hd__decap_12
XFILLER_0_26_29 GND GND VDD VDD sky130_ef_sc_hd__decap_12
XFILLER_0_53_223 GND GND VDD VDD sky130_fd_sc_hd__fill_1
XFILLER_0_38_253 GND GND VDD VDD sky130_ef_sc_hd__decap_12
XTAP_348 GND VDD sky130_fd_sc_hd__tapvpwrvgnd_1
XTAP_304 GND VDD sky130_fd_sc_hd__tapvpwrvgnd_1
XTAP_315 GND VDD sky130_fd_sc_hd__tapvpwrvgnd_1
XTAP_326 GND VDD sky130_fd_sc_hd__tapvpwrvgnd_1
XTAP_337 GND VDD sky130_fd_sc_hd__tapvpwrvgnd_1
XTAP_359 GND VDD sky130_fd_sc_hd__tapvpwrvgnd_1
XFILLER_0_32_83 GND GND VDD VDD sky130_fd_sc_hd__fill_1
XFILLER_0_44_289 GND GND VDD VDD sky130_ef_sc_hd__decap_12
XFILLER_0_44_245 GND GND VDD VDD sky130_fd_sc_hd__decap_6
XFILLER_0_12_153 GND GND VDD VDD sky130_ef_sc_hd__decap_12
XFILLER_0_12_197 GND GND VDD VDD sky130_ef_sc_hd__decap_12
XFILLER_0_35_223 GND GND VDD VDD sky130_fd_sc_hd__fill_1
XFILLER_0_53_27 GND GND VDD VDD sky130_ef_sc_hd__decap_12
XFILLER_0_37_39 GND GND VDD VDD sky130_ef_sc_hd__decap_12
XFILLER_0_41_237 GND GND VDD VDD sky130_ef_sc_hd__decap_12
XFILLER_0_26_245 GND GND VDD VDD sky130_fd_sc_hd__decap_6
XFILLER_0_26_289 GND GND VDD VDD sky130_ef_sc_hd__decap_12
XTAP_189 GND VDD sky130_fd_sc_hd__tapvpwrvgnd_1
XTAP_178 GND VDD sky130_fd_sc_hd__tapvpwrvgnd_1
XTAP_167 GND VDD sky130_fd_sc_hd__tapvpwrvgnd_1
XTAP_156 GND VDD sky130_fd_sc_hd__tapvpwrvgnd_1
XTAP_145 GND VDD sky130_fd_sc_hd__tapvpwrvgnd_1
XTAP_134 GND VDD sky130_fd_sc_hd__tapvpwrvgnd_1
XFILLER_0_49_337 GND GND VDD VDD sky130_ef_sc_hd__decap_12
XFILLER_0_43_93 GND GND VDD VDD sky130_ef_sc_hd__decap_12
XFILLER_0_17_223 GND GND VDD VDD sky130_fd_sc_hd__fill_1
XFILLER_0_7_93 GND GND VDD VDD sky130_ef_sc_hd__decap_12
XFILLER_0_55_329 GND GND VDD VDD sky130_fd_sc_hd__decap_6
XFILLER_0_63_373 GND GND VDD VDD sky130_ef_sc_hd__decap_12
XFILLER_0_2_109 GND GND VDD VDD sky130_ef_sc_hd__decap_12
XFILLER_0_23_237 GND GND VDD VDD sky130_ef_sc_hd__decap_12
XFILLER_0_48_27 GND GND VDD VDD sky130_fd_sc_hd__fill_1
XFILLER_0_31_281 GND GND VDD VDD sky130_ef_sc_hd__decap_12
XFILLER_0_64_15 GND GND VDD VDD sky130_ef_sc_hd__decap_12
XFILLER_0_58_189 GND GND VDD VDD sky130_fd_sc_hd__decap_6
XFILLER_0_46_307 GND GND VDD VDD sky130_fd_sc_hd__fill_1
XFILLER_0_49_167 GND GND VDD VDD sky130_fd_sc_hd__fill_1
XFILLER_0_37_329 GND GND VDD VDD sky130_fd_sc_hd__decap_6
XFILLER_0_64_137 GND GND VDD VDD sky130_fd_sc_hd__decap_3
XFILLER_0_60_365 GND GND VDD VDD sky130_ef_sc_hd__decap_12
XFILLER_0_60_321 GND GND VDD VDD sky130_ef_sc_hd__decap_12
XFILLER_0_45_373 GND GND VDD VDD sky130_ef_sc_hd__decap_12
XFILLER_0_13_281 GND GND VDD VDD sky130_ef_sc_hd__decap_12
XFILLER_0_34_29 GND GND VDD VDD sky130_ef_sc_hd__decap_12
XFILLER_0_55_137 GND GND VDD VDD sky130_ef_sc_hd__decap_12
XFILLER_0_28_307 GND GND VDD VDD sky130_fd_sc_hd__fill_1
XFILLER_0_63_181 GND GND VDD VDD sky130_ef_sc_hd__decap_12
XFILLER_0_59_15 GND GND VDD VDD sky130_ef_sc_hd__decap_12
Xx1 x7/Y x6/X GND GND VDD VDD x8/D sky130_fd_sc_hd__nand2_1
XFILLER_0_19_329 GND GND VDD VDD sky130_fd_sc_hd__decap_6
XFILLER_0_42_365 GND GND VDD VDD sky130_ef_sc_hd__decap_12
XFILLER_0_42_321 GND GND VDD VDD sky130_ef_sc_hd__decap_12
XFILLER_0_40_83 GND GND VDD VDD sky130_fd_sc_hd__fill_1
XFILLER_0_6_245 GND GND VDD VDD sky130_fd_sc_hd__decap_6
XFILLER_0_6_289 GND GND VDD VDD sky130_ef_sc_hd__decap_12
XFILLER_0_27_373 GND GND VDD VDD sky130_ef_sc_hd__decap_12
XFILLER_0_64_3 GND GND VDD VDD sky130_ef_sc_hd__decap_12
XFILLER_0_49_81 GND GND VDD VDD sky130_ef_sc_hd__decap_12
XFILLER_0_10_251 GND GND VDD VDD sky130_fd_sc_hd__fill_1
XFILLER_0_4_83 GND GND VDD VDD sky130_fd_sc_hd__fill_1
XFILLER_0_37_137 GND GND VDD VDD sky130_ef_sc_hd__decap_12
XFILLER_0_60_195 GND GND VDD VDD sky130_fd_sc_hd__fill_1
XFILLER_0_45_181 GND GND VDD VDD sky130_ef_sc_hd__decap_12
XFILLER_0_61_27 GND GND VDD VDD sky130_ef_sc_hd__decap_12
XFILLER_0_45_39 GND GND VDD VDD sky130_ef_sc_hd__decap_12
XFILLER_0_9_39 GND GND VDD VDD sky130_ef_sc_hd__decap_12
XFILLER_0_24_321 GND GND VDD VDD sky130_ef_sc_hd__decap_12
XFILLER_0_3_237 GND GND VDD VDD sky130_ef_sc_hd__decap_12
XFILLER_0_10_53 GND GND VDD VDD sky130_ef_sc_hd__decap_12
XFILLER_0_10_97 GND GND VDD VDD sky130_ef_sc_hd__decap_12
XFILLER_0_24_365 GND GND VDD VDD sky130_ef_sc_hd__decap_12
XFILLER_0_19_51 GND GND VDD VDD sky130_fd_sc_hd__decap_4
XFILLER_0_59_273 GND GND VDD VDD sky130_fd_sc_hd__decap_6
XFILLER_0_19_137 GND GND VDD VDD sky130_ef_sc_hd__decap_12
XFILLER_0_51_93 GND GND VDD VDD sky130_ef_sc_hd__decap_12
XFILLER_0_42_195 GND GND VDD VDD sky130_fd_sc_hd__fill_1
XFILLER_0_27_181 GND GND VDD VDD sky130_ef_sc_hd__decap_12
XFILLER_0_30_357 GND GND VDD VDD sky130_fd_sc_hd__decap_6
XFILLER_0_53_405 GND GND VDD VDD sky130_fd_sc_hd__fill_2
XTAP_519 GND VDD sky130_fd_sc_hd__tapvpwrvgnd_1
XTAP_508 GND VDD sky130_fd_sc_hd__tapvpwrvgnd_1
XFILLER_0_21_335 GND GND VDD VDD sky130_fd_sc_hd__fill_1
XFILLER_0_56_27 GND GND VDD VDD sky130_fd_sc_hd__fill_1
XFILLER_0_56_265 GND GND VDD VDD sky130_ef_sc_hd__decap_12
XFILLER_0_56_221 GND GND VDD VDD sky130_ef_sc_hd__decap_12
XFILLER_0_8_307 GND GND VDD VDD sky130_fd_sc_hd__fill_1
XFILLER_0_24_195 GND GND VDD VDD sky130_fd_sc_hd__fill_1
XFILLER_0_12_357 GND GND VDD VDD sky130_fd_sc_hd__decap_6
XFILLER_0_1_51 GND GND VDD VDD sky130_fd_sc_hd__decap_4
XFILLER_0_27_3 GND GND VDD VDD sky130_fd_sc_hd__decap_8
XFILLER_0_35_405 GND GND VDD VDD sky130_fd_sc_hd__fill_2
XFILLER_0_7_373 GND GND VDD VDD sky130_ef_sc_hd__decap_12
XFILLER_0_30_165 GND GND VDD VDD sky130_ef_sc_hd__decap_12
XFILLER_0_30_121 GND GND VDD VDD sky130_ef_sc_hd__decap_12
XFILLER_0_42_29 GND GND VDD VDD sky130_ef_sc_hd__decap_12
XFILLER_0_42_18 GND GND VDD VDD sky130_fd_sc_hd__decap_8
XFILLER_0_38_265 GND GND VDD VDD sky130_ef_sc_hd__decap_12
XFILLER_0_38_221 GND GND VDD VDD sky130_ef_sc_hd__decap_12
XFILLER_0_53_279 GND GND VDD VDD sky130_fd_sc_hd__fill_1
XTAP_349 GND VDD sky130_fd_sc_hd__tapvpwrvgnd_1
XFILLER_0_6_29 GND GND VDD VDD sky130_ef_sc_hd__decap_12
XTAP_305 GND VDD sky130_fd_sc_hd__tapvpwrvgnd_1
XTAP_316 GND VDD sky130_fd_sc_hd__tapvpwrvgnd_1
XTAP_327 GND VDD sky130_fd_sc_hd__tapvpwrvgnd_1
XTAP_338 GND VDD sky130_fd_sc_hd__tapvpwrvgnd_1
XFILLER_0_16_41 GND GND VDD VDD sky130_ef_sc_hd__decap_12
XFILLER_0_16_85 GND GND VDD VDD sky130_ef_sc_hd__decap_12
XFILLER_0_17_405 GND GND VDD VDD sky130_fd_sc_hd__fill_2
XFILLER_0_4_365 GND GND VDD VDD sky130_ef_sc_hd__decap_12
XFILLER_0_4_321 GND GND VDD VDD sky130_ef_sc_hd__decap_12
XFILLER_0_12_121 GND GND VDD VDD sky130_ef_sc_hd__decap_12
XFILLER_0_12_165 GND GND VDD VDD sky130_ef_sc_hd__decap_12
XFILLER_0_57_81 GND GND VDD VDD sky130_ef_sc_hd__decap_12
XFILLER_0_35_279 GND GND VDD VDD sky130_fd_sc_hd__fill_1
XFILLER_0_7_181 GND GND VDD VDD sky130_ef_sc_hd__decap_12
XFILLER_0_53_39 GND GND VDD VDD sky130_ef_sc_hd__decap_12
XFILLER_0_41_249 GND GND VDD VDD sky130_ef_sc_hd__decap_12
XFILLER_0_41_205 GND GND VDD VDD sky130_ef_sc_hd__decap_12
XFILLER_0_1_335 GND GND VDD VDD sky130_fd_sc_hd__fill_1
XTAP_179 GND VDD sky130_fd_sc_hd__tapvpwrvgnd_1
XTAP_168 GND VDD sky130_fd_sc_hd__tapvpwrvgnd_1
XTAP_157 GND VDD sky130_fd_sc_hd__tapvpwrvgnd_1
XTAP_135 GND VDD sky130_fd_sc_hd__tapvpwrvgnd_1
XTAP_146 GND VDD sky130_fd_sc_hd__tapvpwrvgnd_1
XFILLER_0_49_349 GND GND VDD VDD sky130_ef_sc_hd__decap_12
XFILLER_0_49_305 GND GND VDD VDD sky130_ef_sc_hd__decap_12
XFILLER_0_57_393 GND GND VDD VDD sky130_ef_sc_hd__decap_12
XFILLER_0_17_279 GND GND VDD VDD sky130_fd_sc_hd__fill_1
XFILLER_0_4_195 GND GND VDD VDD sky130_fd_sc_hd__fill_1
XFILLER_0_63_385 GND GND VDD VDD sky130_fd_sc_hd__decap_6
XFILLER_0_23_205 GND GND VDD VDD sky130_ef_sc_hd__decap_12
XFILLER_0_23_249 GND GND VDD VDD sky130_ef_sc_hd__decap_12
XFILLER_0_64_27 GND GND VDD VDD sky130_fd_sc_hd__fill_1
XFILLER_0_31_293 GND GND VDD VDD sky130_ef_sc_hd__decap_12
XFILLER_0_54_363 GND GND VDD VDD sky130_fd_sc_hd__fill_1
XFILLER_0_39_393 GND GND VDD VDD sky130_ef_sc_hd__decap_12
XFILLER_0_38_83 GND GND VDD VDD sky130_fd_sc_hd__fill_1
XFILLER_0_49_113 GND GND VDD VDD sky130_ef_sc_hd__decap_12
XFILLER_0_60_377 GND GND VDD VDD sky130_ef_sc_hd__decap_12
XFILLER_0_60_333 GND GND VDD VDD sky130_ef_sc_hd__decap_12
XFILLER_0_45_385 GND GND VDD VDD sky130_fd_sc_hd__decap_6
XFILLER_0_13_293 GND GND VDD VDD sky130_ef_sc_hd__decap_12
XFILLER_0_55_149 GND GND VDD VDD sky130_ef_sc_hd__decap_12
XFILLER_0_55_105 GND GND VDD VDD sky130_fd_sc_hd__decap_6
XFILLER_0_50_29 GND GND VDD VDD sky130_ef_sc_hd__decap_12
XFILLER_0_36_363 GND GND VDD VDD sky130_fd_sc_hd__fill_1
Xx2 x2/A x6/A GND GND VDD VDD x7/A sky130_fd_sc_hd__or2_1
XFILLER_0_63_193 GND GND VDD VDD sky130_ef_sc_hd__decap_12
XFILLER_0_59_27 GND GND VDD VDD sky130_ef_sc_hd__decap_12
XFILLER_0_24_41 GND GND VDD VDD sky130_ef_sc_hd__decap_12
XFILLER_0_24_85 GND GND VDD VDD sky130_ef_sc_hd__decap_12
XFILLER_0_42_377 GND GND VDD VDD sky130_ef_sc_hd__decap_12
XFILLER_0_42_333 GND GND VDD VDD sky130_ef_sc_hd__decap_12
XFILLER_0_27_385 GND GND VDD VDD sky130_fd_sc_hd__decap_6
XFILLER_0_57_3 GND GND VDD VDD sky130_ef_sc_hd__decap_12
XFILLER_0_49_93 GND GND VDD VDD sky130_ef_sc_hd__decap_12
XFILLER_0_37_149 GND GND VDD VDD sky130_ef_sc_hd__decap_12
XFILLER_0_37_105 GND GND VDD VDD sky130_fd_sc_hd__decap_6
XFILLER_0_18_363 GND GND VDD VDD sky130_fd_sc_hd__fill_1
XFILLER_0_60_141 GND GND VDD VDD sky130_ef_sc_hd__decap_12
XFILLER_0_45_193 GND GND VDD VDD sky130_ef_sc_hd__decap_12
XFILLER_0_61_39 GND GND VDD VDD sky130_ef_sc_hd__decap_12
XFILLER_0_3_249 GND GND VDD VDD sky130_ef_sc_hd__decap_12
XFILLER_0_3_205 GND GND VDD VDD sky130_ef_sc_hd__decap_12
XFILLER_0_24_333 GND GND VDD VDD sky130_ef_sc_hd__decap_12
XFILLER_0_24_377 GND GND VDD VDD sky130_ef_sc_hd__decap_12
XFILLER_0_10_65 GND GND VDD VDD sky130_ef_sc_hd__decap_12
XFILLER_0_35_51 GND GND VDD VDD sky130_fd_sc_hd__decap_4
XFILLER_0_19_105 GND GND VDD VDD sky130_fd_sc_hd__decap_6
XFILLER_0_19_149 GND GND VDD VDD sky130_ef_sc_hd__decap_12
XFILLER_0_42_141 GND GND VDD VDD sky130_ef_sc_hd__decap_12
XFILLER_0_27_193 GND GND VDD VDD sky130_ef_sc_hd__decap_12
XTAP_509 GND VDD sky130_fd_sc_hd__tapvpwrvgnd_1
XFILLER_0_56_277 GND GND VDD VDD sky130_ef_sc_hd__decap_12
XFILLER_0_56_233 GND GND VDD VDD sky130_ef_sc_hd__decap_12
XFILLER_0_24_141 GND GND VDD VDD sky130_ef_sc_hd__decap_12
XFILLER_0_46_83 GND GND VDD VDD sky130_fd_sc_hd__fill_1
XFILLER_0_7_385 GND GND VDD VDD sky130_fd_sc_hd__decap_6
XFILLER_0_30_177 GND GND VDD VDD sky130_ef_sc_hd__decap_12
XFILLER_0_30_133 GND GND VDD VDD sky130_fd_sc_hd__decap_6
XFILLER_0_11_391 GND GND VDD VDD sky130_fd_sc_hd__fill_1
XFILLER_0_38_277 GND GND VDD VDD sky130_ef_sc_hd__decap_12
XFILLER_0_38_233 GND GND VDD VDD sky130_ef_sc_hd__decap_12
XFILLER_0_53_225 GND GND VDD VDD sky130_ef_sc_hd__decap_12
XFILLER_0_21_111 GND GND VDD VDD sky130_fd_sc_hd__fill_1
XTAP_339 GND VDD sky130_fd_sc_hd__tapvpwrvgnd_1
XTAP_306 GND VDD sky130_fd_sc_hd__tapvpwrvgnd_1
XTAP_317 GND VDD sky130_fd_sc_hd__tapvpwrvgnd_1
XTAP_328 GND VDD sky130_fd_sc_hd__tapvpwrvgnd_1
XFILLER_0_16_53 GND GND VDD VDD sky130_ef_sc_hd__decap_12
XFILLER_0_16_97 GND GND VDD VDD sky130_ef_sc_hd__decap_12
XFILLER_0_32_85 GND GND VDD VDD sky130_ef_sc_hd__decap_12
XFILLER_0_32_41 GND GND VDD VDD sky130_ef_sc_hd__decap_12
XFILLER_0_4_333 GND GND VDD VDD sky130_ef_sc_hd__decap_12
XFILLER_0_4_377 GND GND VDD VDD sky130_ef_sc_hd__decap_12
XFILLER_0_12_133 GND GND VDD VDD sky130_fd_sc_hd__decap_6
XFILLER_0_12_177 GND GND VDD VDD sky130_ef_sc_hd__decap_12
XFILLER_0_57_93 GND GND VDD VDD sky130_ef_sc_hd__decap_12
XFILLER_0_35_225 GND GND VDD VDD sky130_ef_sc_hd__decap_12
XFILLER_0_7_193 GND GND VDD VDD sky130_ef_sc_hd__decap_12
XFILLER_0_9_3 GND GND VDD VDD sky130_ef_sc_hd__decap_12
XFILLER_0_41_217 GND GND VDD VDD sky130_fd_sc_hd__decap_6
XTAP_169 GND VDD sky130_fd_sc_hd__tapvpwrvgnd_1
XTAP_158 GND VDD sky130_fd_sc_hd__tapvpwrvgnd_1
XTAP_136 GND VDD sky130_fd_sc_hd__tapvpwrvgnd_1
XTAP_147 GND VDD sky130_fd_sc_hd__tapvpwrvgnd_1
XFILLER_0_64_309 GND GND VDD VDD sky130_ef_sc_hd__decap_12
XFILLER_0_57_361 GND GND VDD VDD sky130_ef_sc_hd__decap_12
XFILLER_0_49_317 GND GND VDD VDD sky130_ef_sc_hd__decap_12
XFILLER_0_43_51 GND GND VDD VDD sky130_fd_sc_hd__decap_4
XFILLER_0_4_141 GND GND VDD VDD sky130_ef_sc_hd__decap_12
XFILLER_0_17_225 GND GND VDD VDD sky130_ef_sc_hd__decap_12
XFILLER_0_7_51 GND GND VDD VDD sky130_fd_sc_hd__decap_4
XFILLER_0_48_29 GND GND VDD VDD sky130_ef_sc_hd__decap_12
XFILLER_0_31_261 GND GND VDD VDD sky130_ef_sc_hd__decap_12
XFILLER_0_23_217 GND GND VDD VDD sky130_fd_sc_hd__decap_6
XFILLER_0_46_309 GND GND VDD VDD sky130_ef_sc_hd__decap_12
XFILLER_0_39_361 GND GND VDD VDD sky130_ef_sc_hd__decap_12
XFILLER_0_1_111 GND GND VDD VDD sky130_fd_sc_hd__fill_1
XFILLER_0_10_401 GND GND VDD VDD sky130_fd_sc_hd__decap_6
XFILLER_0_54_83 GND GND VDD VDD sky130_fd_sc_hd__fill_1
XFILLER_0_49_169 GND GND VDD VDD sky130_ef_sc_hd__decap_12
XFILLER_0_49_125 GND GND VDD VDD sky130_ef_sc_hd__decap_12
XFILLER_0_60_389 GND GND VDD VDD sky130_ef_sc_hd__decap_12
XFILLER_0_60_345 GND GND VDD VDD sky130_ef_sc_hd__decap_12
XFILLER_0_60_301 GND GND VDD VDD sky130_fd_sc_hd__decap_6
XFILLER_0_13_261 GND GND VDD VDD sky130_ef_sc_hd__decap_12
XFILLER_0_20_209 GND GND VDD VDD sky130_ef_sc_hd__decap_12
XFILLER_0_28_309 GND GND VDD VDD sky130_ef_sc_hd__decap_12
XFILLER_0_63_161 GND GND VDD VDD sky130_fd_sc_hd__decap_6
Xx3 x4/X x9/A GND GND VDD VDD x3/Y sky130_fd_sc_hd__nor2_1
XFILLER_0_59_39 GND GND VDD VDD sky130_ef_sc_hd__decap_12
XFILLER_0_46_139 GND GND VDD VDD sky130_fd_sc_hd__fill_1
XFILLER_0_24_20 GND GND VDD VDD sky130_fd_sc_hd__decap_8
XFILLER_0_24_53 GND GND VDD VDD sky130_ef_sc_hd__decap_12
XFILLER_0_24_97 GND GND VDD VDD sky130_ef_sc_hd__decap_12
XFILLER_0_42_389 GND GND VDD VDD sky130_ef_sc_hd__decap_12
XFILLER_0_42_345 GND GND VDD VDD sky130_ef_sc_hd__decap_12
XFILLER_0_42_301 GND GND VDD VDD sky130_fd_sc_hd__decap_6
XFILLER_0_40_85 GND GND VDD VDD sky130_ef_sc_hd__decap_12
XFILLER_0_40_41 GND GND VDD VDD sky130_ef_sc_hd__decap_12
XFILLER_0_4_85 GND GND VDD VDD sky130_ef_sc_hd__decap_12
XFILLER_0_4_41 GND GND VDD VDD sky130_ef_sc_hd__decap_12
XFILLER_0_10_253 GND GND VDD VDD sky130_ef_sc_hd__decap_12
XFILLER_0_52_109 GND GND VDD VDD sky130_ef_sc_hd__decap_12
XFILLER_0_45_161 GND GND VDD VDD sky130_fd_sc_hd__decap_6
XFILLER_0_60_197 GND GND VDD VDD sky130_ef_sc_hd__decap_12
XFILLER_0_60_153 GND GND VDD VDD sky130_ef_sc_hd__decap_12
XFILLER_0_28_139 GND GND VDD VDD sky130_fd_sc_hd__fill_1
XFILLER_0_3_217 GND GND VDD VDD sky130_fd_sc_hd__decap_6
XFILLER_0_10_77 GND GND VDD VDD sky130_fd_sc_hd__decap_6
XFILLER_0_24_301 GND GND VDD VDD sky130_fd_sc_hd__decap_6
XFILLER_0_24_345 GND GND VDD VDD sky130_ef_sc_hd__decap_12
XFILLER_0_24_389 GND GND VDD VDD sky130_ef_sc_hd__decap_12
XFILLER_0_51_51 GND GND VDD VDD sky130_fd_sc_hd__decap_4
XFILLER_0_34_109 GND GND VDD VDD sky130_ef_sc_hd__decap_12
XFILLER_0_27_161 GND GND VDD VDD sky130_fd_sc_hd__decap_6
XFILLER_0_42_197 GND GND VDD VDD sky130_ef_sc_hd__decap_12
XFILLER_0_42_153 GND GND VDD VDD sky130_ef_sc_hd__decap_12
XFILLER_0_0_209 GND GND VDD VDD sky130_ef_sc_hd__decap_12
XFILLER_0_21_337 GND GND VDD VDD sky130_ef_sc_hd__decap_12
XFILLER_0_56_29 GND GND VDD VDD sky130_ef_sc_hd__decap_12
XFILLER_0_56_289 GND GND VDD VDD sky130_ef_sc_hd__decap_12
XFILLER_0_56_245 GND GND VDD VDD sky130_fd_sc_hd__decap_6
XFILLER_0_8_309 GND GND VDD VDD sky130_ef_sc_hd__decap_12
XFILLER_0_16_109 GND GND VDD VDD sky130_ef_sc_hd__decap_12
XFILLER_0_24_153 GND GND VDD VDD sky130_ef_sc_hd__decap_12
XFILLER_0_24_197 GND GND VDD VDD sky130_ef_sc_hd__decap_12
XFILLER_0_62_83 GND GND VDD VDD sky130_fd_sc_hd__fill_1
XFILLER_0_47_223 GND GND VDD VDD sky130_fd_sc_hd__fill_1
XFILLER_0_30_189 GND GND VDD VDD sky130_fd_sc_hd__decap_6
XFILLER_0_53_237 GND GND VDD VDD sky130_ef_sc_hd__decap_12
XFILLER_0_38_289 GND GND VDD VDD sky130_ef_sc_hd__decap_12
XFILLER_0_38_245 GND GND VDD VDD sky130_fd_sc_hd__decap_6
XFILLER_0_61_281 GND GND VDD VDD sky130_ef_sc_hd__decap_12
XFILLER_0_21_167 GND GND VDD VDD sky130_fd_sc_hd__fill_1
XTAP_307 GND VDD sky130_fd_sc_hd__tapvpwrvgnd_1
XTAP_318 GND VDD sky130_fd_sc_hd__tapvpwrvgnd_1
XTAP_329 GND VDD sky130_fd_sc_hd__tapvpwrvgnd_1
XFILLER_0_29_223 GND GND VDD VDD sky130_fd_sc_hd__fill_1
XFILLER_0_16_65 GND GND VDD VDD sky130_ef_sc_hd__decap_12
XFILLER_0_32_97 GND GND VDD VDD sky130_ef_sc_hd__decap_12
XFILLER_0_32_53 GND GND VDD VDD sky130_ef_sc_hd__decap_12
XFILLER_0_4_345 GND GND VDD VDD sky130_ef_sc_hd__decap_12
XFILLER_0_4_301 GND GND VDD VDD sky130_fd_sc_hd__decap_6
XFILLER_0_8_139 GND GND VDD VDD sky130_fd_sc_hd__fill_1
XFILLER_0_4_389 GND GND VDD VDD sky130_ef_sc_hd__decap_12
XFILLER_0_12_189 GND GND VDD VDD sky130_fd_sc_hd__decap_6
XFILLER_0_32_3 GND GND VDD VDD sky130_ef_sc_hd__decap_12
XFILLER_0_35_237 GND GND VDD VDD sky130_ef_sc_hd__decap_12
XFILLER_0_43_281 GND GND VDD VDD sky130_ef_sc_hd__decap_12
XFILLER_0_7_161 GND GND VDD VDD sky130_fd_sc_hd__decap_6
XFILLER_0_58_307 GND GND VDD VDD sky130_fd_sc_hd__fill_1
XTAP_137 GND VDD sky130_fd_sc_hd__tapvpwrvgnd_1
XTAP_148 GND VDD sky130_fd_sc_hd__tapvpwrvgnd_1
XFILLER_0_1_337 GND GND VDD VDD sky130_ef_sc_hd__decap_12
XTAP_159 GND VDD sky130_fd_sc_hd__tapvpwrvgnd_1
XFILLER_0_57_373 GND GND VDD VDD sky130_ef_sc_hd__decap_12
XFILLER_0_49_329 GND GND VDD VDD sky130_fd_sc_hd__decap_6
XFILLER_0_17_237 GND GND VDD VDD sky130_ef_sc_hd__decap_12
XFILLER_0_40_251 GND GND VDD VDD sky130_fd_sc_hd__fill_1
XFILLER_0_4_197 GND GND VDD VDD sky130_ef_sc_hd__decap_12
XFILLER_0_4_153 GND GND VDD VDD sky130_ef_sc_hd__decap_12
XFILLER_0_25_281 GND GND VDD VDD sky130_ef_sc_hd__decap_12
XFILLER_0_31_273 GND GND VDD VDD sky130_fd_sc_hd__decap_6
XFILLER_0_64_29 GND GND VDD VDD sky130_ef_sc_hd__decap_12
XFILLER_0_54_321 GND GND VDD VDD sky130_ef_sc_hd__decap_12
XFILLER_0_39_373 GND GND VDD VDD sky130_ef_sc_hd__decap_12
XFILLER_0_13_55 GND GND VDD VDD sky130_fd_sc_hd__fill_1
XFILLER_0_54_365 GND GND VDD VDD sky130_ef_sc_hd__decap_12
XFILLER_0_22_251 GND GND VDD VDD sky130_fd_sc_hd__fill_1
XFILLER_0_38_85 GND GND VDD VDD sky130_ef_sc_hd__decap_12
XFILLER_0_38_41 GND GND VDD VDD sky130_ef_sc_hd__decap_12
XFILLER_0_1_167 GND GND VDD VDD sky130_fd_sc_hd__fill_1
XFILLER_0_49_137 GND GND VDD VDD sky130_ef_sc_hd__decap_12
XFILLER_0_57_181 GND GND VDD VDD sky130_ef_sc_hd__decap_12
XFILLER_0_9_223 GND GND VDD VDD sky130_fd_sc_hd__fill_1
XFILLER_0_60_357 GND GND VDD VDD sky130_fd_sc_hd__decap_6
XFILLER_0_13_273 GND GND VDD VDD sky130_fd_sc_hd__decap_6
XTAP_490 GND VDD sky130_fd_sc_hd__tapvpwrvgnd_1
XFILLER_0_36_321 GND GND VDD VDD sky130_ef_sc_hd__decap_12
XFILLER_0_51_335 GND GND VDD VDD sky130_fd_sc_hd__fill_1
XFILLER_0_36_365 GND GND VDD VDD sky130_ef_sc_hd__decap_12
Xx4 x7/Y x7/Y x7/Y x7/Y GND GND VDD VDD x4/X sky130_fd_sc_hd__or4_1
XFILLER_0_39_181 GND GND VDD VDD sky130_ef_sc_hd__decap_12
XFILLER_0_40_53 GND GND VDD VDD sky130_ef_sc_hd__decap_12
XFILLER_0_24_65 GND GND VDD VDD sky130_ef_sc_hd__decap_12
XFILLER_0_54_195 GND GND VDD VDD sky130_fd_sc_hd__fill_1
XFILLER_0_49_51 GND GND VDD VDD sky130_fd_sc_hd__decap_4
XFILLER_0_42_357 GND GND VDD VDD sky130_fd_sc_hd__decap_6
XFILLER_0_40_97 GND GND VDD VDD sky130_ef_sc_hd__decap_12
XFILLER_0_10_221 GND GND VDD VDD sky130_ef_sc_hd__decap_12
XFILLER_0_4_97 GND GND VDD VDD sky130_ef_sc_hd__decap_12
XFILLER_0_4_53 GND GND VDD VDD sky130_ef_sc_hd__decap_12
XFILLER_0_10_265 GND GND VDD VDD sky130_ef_sc_hd__decap_12
XFILLER_0_60_165 GND GND VDD VDD sky130_ef_sc_hd__decap_12
XFILLER_0_60_121 GND GND VDD VDD sky130_ef_sc_hd__decap_12
XFILLER_0_33_335 GND GND VDD VDD sky130_fd_sc_hd__fill_1
XFILLER_0_5_281 GND GND VDD VDD sky130_ef_sc_hd__decap_12
XFILLER_0_18_321 GND GND VDD VDD sky130_ef_sc_hd__decap_12
XFILLER_0_18_365 GND GND VDD VDD sky130_ef_sc_hd__decap_12
XFILLER_0_36_195 GND GND VDD VDD sky130_fd_sc_hd__fill_1
XFILLER_0_24_357 GND GND VDD VDD sky130_fd_sc_hd__decap_6
XFILLER_0_47_405 GND GND VDD VDD sky130_fd_sc_hd__fill_2
XFILLER_0_42_121 GND GND VDD VDD sky130_ef_sc_hd__decap_12
XFILLER_0_15_335 GND GND VDD VDD sky130_fd_sc_hd__fill_1
XFILLER_0_62_3 GND GND VDD VDD sky130_ef_sc_hd__decap_12
XFILLER_0_42_165 GND GND VDD VDD sky130_ef_sc_hd__decap_12
XFILLER_0_2_251 GND GND VDD VDD sky130_fd_sc_hd__fill_1
XFILLER_0_18_195 GND GND VDD VDD sky130_fd_sc_hd__fill_1
XFILLER_0_21_305 GND GND VDD VDD sky130_ef_sc_hd__decap_12
XFILLER_0_21_349 GND GND VDD VDD sky130_ef_sc_hd__decap_12
XFILLER_0_29_405 GND GND VDD VDD sky130_fd_sc_hd__fill_2
XFILLER_0_21_55 GND GND VDD VDD sky130_fd_sc_hd__fill_1
XFILLER_0_24_121 GND GND VDD VDD sky130_ef_sc_hd__decap_12
XFILLER_0_24_165 GND GND VDD VDD sky130_ef_sc_hd__decap_12
XFILLER_0_46_85 GND GND VDD VDD sky130_ef_sc_hd__decap_12
XFILLER_0_46_41 GND GND VDD VDD sky130_ef_sc_hd__decap_12
XFILLER_0_47_279 GND GND VDD VDD sky130_fd_sc_hd__fill_1
XFILLER_0_11_393 GND GND VDD VDD sky130_ef_sc_hd__decap_12
XFILLER_0_53_249 GND GND VDD VDD sky130_ef_sc_hd__decap_12
XFILLER_0_53_205 GND GND VDD VDD sky130_ef_sc_hd__decap_12
XFILLER_0_61_293 GND GND VDD VDD sky130_ef_sc_hd__decap_12
XFILLER_0_21_113 GND GND VDD VDD sky130_ef_sc_hd__decap_12
XTAP_308 GND VDD sky130_fd_sc_hd__tapvpwrvgnd_1
XTAP_319 GND VDD sky130_fd_sc_hd__tapvpwrvgnd_1
XFILLER_0_32_65 GND GND VDD VDD sky130_ef_sc_hd__decap_12
XFILLER_0_29_279 GND GND VDD VDD sky130_fd_sc_hd__fill_1
XFILLER_0_16_77 GND GND VDD VDD sky130_fd_sc_hd__decap_6
XFILLER_0_4_357 GND GND VDD VDD sky130_fd_sc_hd__decap_6
XFILLER_0_57_51 GND GND VDD VDD sky130_fd_sc_hd__decap_4
XFILLER_0_25_3 GND GND VDD VDD sky130_fd_sc_hd__fill_2
XFILLER_0_35_249 GND GND VDD VDD sky130_ef_sc_hd__decap_12
XFILLER_0_35_205 GND GND VDD VDD sky130_ef_sc_hd__decap_12
XFILLER_0_43_293 GND GND VDD VDD sky130_ef_sc_hd__decap_12
XFILLER_0_1_305 GND GND VDD VDD sky130_ef_sc_hd__decap_12
XTAP_138 GND VDD sky130_fd_sc_hd__tapvpwrvgnd_1
XTAP_149 GND VDD sky130_fd_sc_hd__tapvpwrvgnd_1
XFILLER_0_1_349 GND GND VDD VDD sky130_ef_sc_hd__decap_12
XFILLER_0_27_54 GND GND VDD VDD sky130_fd_sc_hd__fill_2
XFILLER_0_57_385 GND GND VDD VDD sky130_fd_sc_hd__decap_6
XFILLER_0_9_405 GND GND VDD VDD sky130_fd_sc_hd__fill_2
XFILLER_0_17_205 GND GND VDD VDD sky130_ef_sc_hd__decap_12
XFILLER_0_17_249 GND GND VDD VDD sky130_ef_sc_hd__decap_12
XFILLER_0_4_165 GND GND VDD VDD sky130_ef_sc_hd__decap_12
XFILLER_0_4_121 GND GND VDD VDD sky130_ef_sc_hd__decap_12
XFILLER_0_25_293 GND GND VDD VDD sky130_ef_sc_hd__decap_12
XFILLER_0_0_393 GND GND VDD VDD sky130_ef_sc_hd__decap_12
XFILLER_0_48_363 GND GND VDD VDD sky130_fd_sc_hd__fill_1
XFILLER_0_54_333 GND GND VDD VDD sky130_ef_sc_hd__decap_12
XFILLER_0_39_385 GND GND VDD VDD sky130_fd_sc_hd__decap_6
XFILLER_0_54_377 GND GND VDD VDD sky130_ef_sc_hd__decap_12
XFILLER_0_1_113 GND GND VDD VDD sky130_ef_sc_hd__decap_12
XFILLER_0_38_97 GND GND VDD VDD sky130_ef_sc_hd__decap_12
XFILLER_0_38_53 GND GND VDD VDD sky130_ef_sc_hd__decap_12