*SPEF "ieee 1481-1999"
*DESIGN "arbiter_proj"
*DATE "11:11:11 Fri 11 11, 1111"
*VENDOR "OpenRCX"
*PROGRAM "Parallel Extraction"
*VERSION "1.0"
*DESIGN_FLOW "NAME_SCOPE LOCAL" "PIN_CAP NONE"
*DIVIDER /
*DELIMITER :
*BUS_DELIMITER []
*T_UNIT 1 NS
*C_UNIT 1 PF
*R_UNIT 1 OHM
*L_UNIT 1 HENRY

*NAME_MAP
*1 io_in[0]
*2 io_in[1]
*3 io_in[2]
*4 io_out[0]
*5 io_out[1]
*6 io_out[2]
*9 arbiter\.g0
*10 arbiter\.g1
*11 arbiter\.net1
*12 arbiter\.net2
*13 arbiter\.net3
*14 arbiter\.net4
*15 arbiter\.net5
*16 arbiter\.net6
*17 arbiter\.net7
*18 arbiter\.net8
*19 arbiter\.net9
*20 arbiter\.rc
*21 net1
*22 net2
*23 net3
*24 net4
*25 net5
*26 net6
*27 ANTENNA_arbiter\.x10_B
*28 ANTENNA_arbiter\.x2_A
*29 ANTENNA_arbiter\.x2_B
*30 ANTENNA_arbiter\.x5_A
*31 ANTENNA_arbiter\.x6_A
*32 ANTENNA_output4_A
*33 ANTENNA_output6_A
*34 FILLER_0_0_109
*35 FILLER_0_0_113
*36 FILLER_0_0_125
*37 FILLER_0_0_137
*38 FILLER_0_0_141
*39 FILLER_0_0_15
*40 FILLER_0_0_153
*41 FILLER_0_0_165
*42 FILLER_0_0_169
*43 FILLER_0_0_181
*44 FILLER_0_0_193
*45 FILLER_0_0_197
*46 FILLER_0_0_209
*47 FILLER_0_0_221
*48 FILLER_0_0_225
*49 FILLER_0_0_237
*50 FILLER_0_0_249
*51 FILLER_0_0_253
*52 FILLER_0_0_265
*53 FILLER_0_0_27
*54 FILLER_0_0_277
*55 FILLER_0_0_281
*56 FILLER_0_0_29
*57 FILLER_0_0_293
*58 FILLER_0_0_3
*59 FILLER_0_0_305
*60 FILLER_0_0_309
*61 FILLER_0_0_321
*62 FILLER_0_0_333
*63 FILLER_0_0_337
*64 FILLER_0_0_349
*65 FILLER_0_0_361
*66 FILLER_0_0_365
*67 FILLER_0_0_377
*68 FILLER_0_0_389
*69 FILLER_0_0_393
*70 FILLER_0_0_405
*71 FILLER_0_0_41
*72 FILLER_0_0_53
*73 FILLER_0_0_57
*74 FILLER_0_0_69
*75 FILLER_0_0_81
*76 FILLER_0_0_85
*77 FILLER_0_0_97
*78 FILLER_0_10_109
*79 FILLER_0_10_121
*80 FILLER_0_10_133
*81 FILLER_0_10_139
*82 FILLER_0_10_141
*83 FILLER_0_10_15
*84 FILLER_0_10_153
*85 FILLER_0_10_165
*86 FILLER_0_10_177
*87 FILLER_0_10_189
*88 FILLER_0_10_195
*89 FILLER_0_10_197
*90 FILLER_0_10_209
*91 FILLER_0_10_221
*92 FILLER_0_10_233
*93 FILLER_0_10_245
*94 FILLER_0_10_251
*95 FILLER_0_10_253
*96 FILLER_0_10_265
*97 FILLER_0_10_27
*98 FILLER_0_10_277
*99 FILLER_0_10_289
*100 FILLER_0_10_29
*101 FILLER_0_10_3
*102 FILLER_0_10_301
*103 FILLER_0_10_307
*104 FILLER_0_10_309
*105 FILLER_0_10_321
*106 FILLER_0_10_333
*107 FILLER_0_10_345
*108 FILLER_0_10_357
*109 FILLER_0_10_363
*110 FILLER_0_10_365
*111 FILLER_0_10_377
*112 FILLER_0_10_389
*113 FILLER_0_10_401
*114 FILLER_0_10_41
*115 FILLER_0_10_53
*116 FILLER_0_10_65
*117 FILLER_0_10_77
*118 FILLER_0_10_83
*119 FILLER_0_10_85
*120 FILLER_0_10_97
*121 FILLER_0_11_105
*122 FILLER_0_11_111
*123 FILLER_0_11_113
*124 FILLER_0_11_125
*125 FILLER_0_11_137
*126 FILLER_0_11_149
*127 FILLER_0_11_15
*128 FILLER_0_11_161
*129 FILLER_0_11_167
*130 FILLER_0_11_169
*131 FILLER_0_11_181
*132 FILLER_0_11_193
*133 FILLER_0_11_205
*134 FILLER_0_11_217
*135 FILLER_0_11_223
*136 FILLER_0_11_225
*137 FILLER_0_11_237
*138 FILLER_0_11_249
*139 FILLER_0_11_261
*140 FILLER_0_11_27
*141 FILLER_0_11_273
*142 FILLER_0_11_279
*143 FILLER_0_11_281
*144 FILLER_0_11_293
*145 FILLER_0_11_3
*146 FILLER_0_11_305
*147 FILLER_0_11_317
*148 FILLER_0_11_329
*149 FILLER_0_11_335
*150 FILLER_0_11_337
*151 FILLER_0_11_349
*152 FILLER_0_11_361
*153 FILLER_0_11_373
*154 FILLER_0_11_385
*155 FILLER_0_11_39
*156 FILLER_0_11_391
*157 FILLER_0_11_393
*158 FILLER_0_11_405
*159 FILLER_0_11_51
*160 FILLER_0_11_55
*161 FILLER_0_11_57
*162 FILLER_0_11_69
*163 FILLER_0_11_81
*164 FILLER_0_11_93
*165 FILLER_0_12_109
*166 FILLER_0_12_121
*167 FILLER_0_12_133
*168 FILLER_0_12_139
*169 FILLER_0_12_141
*170 FILLER_0_12_15
*171 FILLER_0_12_153
*172 FILLER_0_12_165
*173 FILLER_0_12_177
*174 FILLER_0_12_189
*175 FILLER_0_12_195
*176 FILLER_0_12_197
*177 FILLER_0_12_209
*178 FILLER_0_12_221
*179 FILLER_0_12_233
*180 FILLER_0_12_245
*181 FILLER_0_12_251
*182 FILLER_0_12_253
*183 FILLER_0_12_265
*184 FILLER_0_12_27
*185 FILLER_0_12_277
*186 FILLER_0_12_289
*187 FILLER_0_12_29
*188 FILLER_0_12_3
*189 FILLER_0_12_301
*190 FILLER_0_12_307
*191 FILLER_0_12_309
*192 FILLER_0_12_321
*193 FILLER_0_12_333
*194 FILLER_0_12_345
*195 FILLER_0_12_357
*196 FILLER_0_12_363
*197 FILLER_0_12_365
*198 FILLER_0_12_377
*199 FILLER_0_12_389
*200 FILLER_0_12_401
*201 FILLER_0_12_41
*202 FILLER_0_12_53
*203 FILLER_0_12_65
*204 FILLER_0_12_77
*205 FILLER_0_12_83
*206 FILLER_0_12_85
*207 FILLER_0_12_97
*208 FILLER_0_13_105
*209 FILLER_0_13_111
*210 FILLER_0_13_113
*211 FILLER_0_13_125
*212 FILLER_0_13_137
*213 FILLER_0_13_149
*214 FILLER_0_13_15
*215 FILLER_0_13_161
*216 FILLER_0_13_167
*217 FILLER_0_13_169
*218 FILLER_0_13_181
*219 FILLER_0_13_193
*220 FILLER_0_13_205
*221 FILLER_0_13_217
*222 FILLER_0_13_223
*223 FILLER_0_13_225
*224 FILLER_0_13_237
*225 FILLER_0_13_249
*226 FILLER_0_13_261
*227 FILLER_0_13_27
*228 FILLER_0_13_273
*229 FILLER_0_13_279
*230 FILLER_0_13_281
*231 FILLER_0_13_293
*232 FILLER_0_13_3
*233 FILLER_0_13_305
*234 FILLER_0_13_317
*235 FILLER_0_13_329
*236 FILLER_0_13_335
*237 FILLER_0_13_337
*238 FILLER_0_13_349
*239 FILLER_0_13_361
*240 FILLER_0_13_373
*241 FILLER_0_13_385
*242 FILLER_0_13_39
*243 FILLER_0_13_391
*244 FILLER_0_13_393
*245 FILLER_0_13_405
*246 FILLER_0_13_51
*247 FILLER_0_13_55
*248 FILLER_0_13_57
*249 FILLER_0_13_69
*250 FILLER_0_13_81
*251 FILLER_0_13_93
*252 FILLER_0_14_109
*253 FILLER_0_14_121
*254 FILLER_0_14_133
*255 FILLER_0_14_139
*256 FILLER_0_14_141
*257 FILLER_0_14_15
*258 FILLER_0_14_153
*259 FILLER_0_14_165
*260 FILLER_0_14_177
*261 FILLER_0_14_189
*262 FILLER_0_14_195
*263 FILLER_0_14_197
*264 FILLER_0_14_209
*265 FILLER_0_14_221
*266 FILLER_0_14_233
*267 FILLER_0_14_245
*268 FILLER_0_14_251
*269 FILLER_0_14_253
*270 FILLER_0_14_265
*271 FILLER_0_14_27
*272 FILLER_0_14_277
*273 FILLER_0_14_289
*274 FILLER_0_14_29
*275 FILLER_0_14_3
*276 FILLER_0_14_301
*277 FILLER_0_14_307
*278 FILLER_0_14_309
*279 FILLER_0_14_321
*280 FILLER_0_14_333
*281 FILLER_0_14_345
*282 FILLER_0_14_357
*283 FILLER_0_14_363
*284 FILLER_0_14_365
*285 FILLER_0_14_377
*286 FILLER_0_14_389
*287 FILLER_0_14_401
*288 FILLER_0_14_41
*289 FILLER_0_14_53
*290 FILLER_0_14_65
*291 FILLER_0_14_77
*292 FILLER_0_14_83
*293 FILLER_0_14_85
*294 FILLER_0_14_97
*295 FILLER_0_15_105
*296 FILLER_0_15_111
*297 FILLER_0_15_113
*298 FILLER_0_15_125
*299 FILLER_0_15_137
*300 FILLER_0_15_149
*301 FILLER_0_15_15
*302 FILLER_0_15_161
*303 FILLER_0_15_167
*304 FILLER_0_15_169
*305 FILLER_0_15_181
*306 FILLER_0_15_193
*307 FILLER_0_15_205
*308 FILLER_0_15_217
*309 FILLER_0_15_223
*310 FILLER_0_15_225
*311 FILLER_0_15_237
*312 FILLER_0_15_249
*313 FILLER_0_15_261
*314 FILLER_0_15_27
*315 FILLER_0_15_273
*316 FILLER_0_15_279
*317 FILLER_0_15_281
*318 FILLER_0_15_293
*319 FILLER_0_15_3
*320 FILLER_0_15_305
*321 FILLER_0_15_317
*322 FILLER_0_15_329
*323 FILLER_0_15_335
*324 FILLER_0_15_337
*325 FILLER_0_15_349
*326 FILLER_0_15_361
*327 FILLER_0_15_373
*328 FILLER_0_15_385
*329 FILLER_0_15_39
*330 FILLER_0_15_391
*331 FILLER_0_15_393
*332 FILLER_0_15_405
*333 FILLER_0_15_51
*334 FILLER_0_15_55
*335 FILLER_0_15_57
*336 FILLER_0_15_69
*337 FILLER_0_15_81
*338 FILLER_0_15_93
*339 FILLER_0_16_109
*340 FILLER_0_16_121
*341 FILLER_0_16_133
*342 FILLER_0_16_139
*343 FILLER_0_16_141
*344 FILLER_0_16_15
*345 FILLER_0_16_153
*346 FILLER_0_16_165
*347 FILLER_0_16_177
*348 FILLER_0_16_189
*349 FILLER_0_16_195
*350 FILLER_0_16_197
*351 FILLER_0_16_209
*352 FILLER_0_16_221
*353 FILLER_0_16_233
*354 FILLER_0_16_245
*355 FILLER_0_16_251
*356 FILLER_0_16_253
*357 FILLER_0_16_265
*358 FILLER_0_16_27
*359 FILLER_0_16_277
*360 FILLER_0_16_289
*361 FILLER_0_16_29
*362 FILLER_0_16_3
*363 FILLER_0_16_301
*364 FILLER_0_16_307
*365 FILLER_0_16_309
*366 FILLER_0_16_321
*367 FILLER_0_16_333
*368 FILLER_0_16_345
*369 FILLER_0_16_357
*370 FILLER_0_16_363
*371 FILLER_0_16_365
*372 FILLER_0_16_377
*373 FILLER_0_16_389
*374 FILLER_0_16_401
*375 FILLER_0_16_41
*376 FILLER_0_16_53
*377 FILLER_0_16_65
*378 FILLER_0_16_77
*379 FILLER_0_16_83
*380 FILLER_0_16_85
*381 FILLER_0_16_97
*382 FILLER_0_17_105
*383 FILLER_0_17_111
*384 FILLER_0_17_113
*385 FILLER_0_17_125
*386 FILLER_0_17_137
*387 FILLER_0_17_149
*388 FILLER_0_17_15
*389 FILLER_0_17_161
*390 FILLER_0_17_167
*391 FILLER_0_17_169
*392 FILLER_0_17_181
*393 FILLER_0_17_193
*394 FILLER_0_17_205
*395 FILLER_0_17_217
*396 FILLER_0_17_223
*397 FILLER_0_17_225
*398 FILLER_0_17_237
*399 FILLER_0_17_249
*400 FILLER_0_17_261
*401 FILLER_0_17_27
*402 FILLER_0_17_273
*403 FILLER_0_17_279
*404 FILLER_0_17_281
*405 FILLER_0_17_293
*406 FILLER_0_17_3
*407 FILLER_0_17_305
*408 FILLER_0_17_317
*409 FILLER_0_17_329
*410 FILLER_0_17_335
*411 FILLER_0_17_337
*412 FILLER_0_17_349
*413 FILLER_0_17_361
*414 FILLER_0_17_373
*415 FILLER_0_17_385
*416 FILLER_0_17_39
*417 FILLER_0_17_391
*418 FILLER_0_17_393
*419 FILLER_0_17_405
*420 FILLER_0_17_51
*421 FILLER_0_17_55
*422 FILLER_0_17_57
*423 FILLER_0_17_69
*424 FILLER_0_17_81
*425 FILLER_0_17_93
*426 FILLER_0_18_109
*427 FILLER_0_18_121
*428 FILLER_0_18_133
*429 FILLER_0_18_139
*430 FILLER_0_18_141
*431 FILLER_0_18_15
*432 FILLER_0_18_153
*433 FILLER_0_18_165
*434 FILLER_0_18_177
*435 FILLER_0_18_189
*436 FILLER_0_18_195
*437 FILLER_0_18_197
*438 FILLER_0_18_209
*439 FILLER_0_18_221
*440 FILLER_0_18_233
*441 FILLER_0_18_245
*442 FILLER_0_18_251
*443 FILLER_0_18_253
*444 FILLER_0_18_265
*445 FILLER_0_18_27
*446 FILLER_0_18_277
*447 FILLER_0_18_289
*448 FILLER_0_18_29
*449 FILLER_0_18_3
*450 FILLER_0_18_301
*451 FILLER_0_18_307
*452 FILLER_0_18_309
*453 FILLER_0_18_321
*454 FILLER_0_18_333
*455 FILLER_0_18_345
*456 FILLER_0_18_357
*457 FILLER_0_18_363
*458 FILLER_0_18_365
*459 FILLER_0_18_377
*460 FILLER_0_18_389
*461 FILLER_0_18_401
*462 FILLER_0_18_41
*463 FILLER_0_18_53
*464 FILLER_0_18_65
*465 FILLER_0_18_77
*466 FILLER_0_18_83
*467 FILLER_0_18_85
*468 FILLER_0_18_97
*469 FILLER_0_19_105
*470 FILLER_0_19_111
*471 FILLER_0_19_113
*472 FILLER_0_19_125
*473 FILLER_0_19_137
*474 FILLER_0_19_149
*475 FILLER_0_19_15
*476 FILLER_0_19_161
*477 FILLER_0_19_167
*478 FILLER_0_19_169
*479 FILLER_0_19_181
*480 FILLER_0_19_193
*481 FILLER_0_19_205
*482 FILLER_0_19_217
*483 FILLER_0_19_223
*484 FILLER_0_19_225
*485 FILLER_0_19_237
*486 FILLER_0_19_249
*487 FILLER_0_19_261
*488 FILLER_0_19_27
*489 FILLER_0_19_273
*490 FILLER_0_19_279
*491 FILLER_0_19_281
*492 FILLER_0_19_293
*493 FILLER_0_19_3
*494 FILLER_0_19_305
*495 FILLER_0_19_317
*496 FILLER_0_19_329
*497 FILLER_0_19_335
*498 FILLER_0_19_337
*499 FILLER_0_19_349
*500 FILLER_0_19_361
*501 FILLER_0_19_373
*502 FILLER_0_19_385
*503 FILLER_0_19_39
*504 FILLER_0_19_391
*505 FILLER_0_19_393
*506 FILLER_0_19_405
*507 FILLER_0_19_51
*508 FILLER_0_19_55
*509 FILLER_0_19_57
*510 FILLER_0_19_69
*511 FILLER_0_19_81
*512 FILLER_0_19_93
*513 FILLER_0_1_105
*514 FILLER_0_1_111
*515 FILLER_0_1_113
*516 FILLER_0_1_125
*517 FILLER_0_1_137
*518 FILLER_0_1_149
*519 FILLER_0_1_15
*520 FILLER_0_1_161
*521 FILLER_0_1_167
*522 FILLER_0_1_169
*523 FILLER_0_1_181
*524 FILLER_0_1_193
*525 FILLER_0_1_205
*526 FILLER_0_1_217
*527 FILLER_0_1_223
*528 FILLER_0_1_225
*529 FILLER_0_1_237
*530 FILLER_0_1_249
*531 FILLER_0_1_261
*532 FILLER_0_1_27
*533 FILLER_0_1_273
*534 FILLER_0_1_279
*535 FILLER_0_1_281
*536 FILLER_0_1_293
*537 FILLER_0_1_3
*538 FILLER_0_1_305
*539 FILLER_0_1_317
*540 FILLER_0_1_329
*541 FILLER_0_1_335
*542 FILLER_0_1_337
*543 FILLER_0_1_349
*544 FILLER_0_1_361
*545 FILLER_0_1_373
*546 FILLER_0_1_385
*547 FILLER_0_1_39
*548 FILLER_0_1_391
*549 FILLER_0_1_393
*550 FILLER_0_1_405
*551 FILLER_0_1_51
*552 FILLER_0_1_55
*553 FILLER_0_1_57
*554 FILLER_0_1_69
*555 FILLER_0_1_81
*556 FILLER_0_1_93
*557 FILLER_0_20_109
*558 FILLER_0_20_121
*559 FILLER_0_20_133
*560 FILLER_0_20_139
*561 FILLER_0_20_141
*562 FILLER_0_20_15
*563 FILLER_0_20_153
*564 FILLER_0_20_165
*565 FILLER_0_20_177
*566 FILLER_0_20_189
*567 FILLER_0_20_195
*568 FILLER_0_20_197
*569 FILLER_0_20_209
*570 FILLER_0_20_221
*571 FILLER_0_20_233
*572 FILLER_0_20_245
*573 FILLER_0_20_251
*574 FILLER_0_20_253
*575 FILLER_0_20_265
*576 FILLER_0_20_27
*577 FILLER_0_20_277
*578 FILLER_0_20_289
*579 FILLER_0_20_29
*580 FILLER_0_20_3
*581 FILLER_0_20_301
*582 FILLER_0_20_307
*583 FILLER_0_20_309
*584 FILLER_0_20_321
*585 FILLER_0_20_333
*586 FILLER_0_20_345
*587 FILLER_0_20_357
*588 FILLER_0_20_363
*589 FILLER_0_20_365
*590 FILLER_0_20_377
*591 FILLER_0_20_389
*592 FILLER_0_20_401
*593 FILLER_0_20_41
*594 FILLER_0_20_53
*595 FILLER_0_20_65
*596 FILLER_0_20_77
*597 FILLER_0_20_83
*598 FILLER_0_20_85
*599 FILLER_0_20_97
*600 FILLER_0_21_105
*601 FILLER_0_21_111
*602 FILLER_0_21_113
*603 FILLER_0_21_125
*604 FILLER_0_21_137
*605 FILLER_0_21_149
*606 FILLER_0_21_15
*607 FILLER_0_21_161
*608 FILLER_0_21_167
*609 FILLER_0_21_169
*610 FILLER_0_21_181
*611 FILLER_0_21_193
*612 FILLER_0_21_205
*613 FILLER_0_21_217
*614 FILLER_0_21_223
*615 FILLER_0_21_225
*616 FILLER_0_21_237
*617 FILLER_0_21_249
*618 FILLER_0_21_261
*619 FILLER_0_21_27
*620 FILLER_0_21_273
*621 FILLER_0_21_279
*622 FILLER_0_21_281
*623 FILLER_0_21_293
*624 FILLER_0_21_3
*625 FILLER_0_21_305
*626 FILLER_0_21_317
*627 FILLER_0_21_329
*628 FILLER_0_21_335
*629 FILLER_0_21_337
*630 FILLER_0_21_349
*631 FILLER_0_21_361
*632 FILLER_0_21_373
*633 FILLER_0_21_385
*634 FILLER_0_21_39
*635 FILLER_0_21_391
*636 FILLER_0_21_393
*637 FILLER_0_21_405
*638 FILLER_0_21_51
*639 FILLER_0_21_55
*640 FILLER_0_21_57
*641 FILLER_0_21_69
*642 FILLER_0_21_81
*643 FILLER_0_21_93
*644 FILLER_0_22_109
*645 FILLER_0_22_121
*646 FILLER_0_22_133
*647 FILLER_0_22_139
*648 FILLER_0_22_141
*649 FILLER_0_22_15
*650 FILLER_0_22_153
*651 FILLER_0_22_165
*652 FILLER_0_22_177
*653 FILLER_0_22_189
*654 FILLER_0_22_195
*655 FILLER_0_22_197
*656 FILLER_0_22_209
*657 FILLER_0_22_221
*658 FILLER_0_22_233
*659 FILLER_0_22_245
*660 FILLER_0_22_251
*661 FILLER_0_22_253
*662 FILLER_0_22_265
*663 FILLER_0_22_27
*664 FILLER_0_22_277
*665 FILLER_0_22_289
*666 FILLER_0_22_29
*667 FILLER_0_22_3
*668 FILLER_0_22_301
*669 FILLER_0_22_307
*670 FILLER_0_22_309
*671 FILLER_0_22_321
*672 FILLER_0_22_333
*673 FILLER_0_22_345
*674 FILLER_0_22_357
*675 FILLER_0_22_363
*676 FILLER_0_22_365
*677 FILLER_0_22_377
*678 FILLER_0_22_389
*679 FILLER_0_22_401
*680 FILLER_0_22_41
*681 FILLER_0_22_53
*682 FILLER_0_22_65
*683 FILLER_0_22_77
*684 FILLER_0_22_83
*685 FILLER_0_22_85
*686 FILLER_0_22_97
*687 FILLER_0_23_105
*688 FILLER_0_23_111
*689 FILLER_0_23_113
*690 FILLER_0_23_125
*691 FILLER_0_23_137
*692 FILLER_0_23_149
*693 FILLER_0_23_15
*694 FILLER_0_23_161
*695 FILLER_0_23_167
*696 FILLER_0_23_169
*697 FILLER_0_23_181
*698 FILLER_0_23_193
*699 FILLER_0_23_205
*700 FILLER_0_23_217
*701 FILLER_0_23_223
*702 FILLER_0_23_225
*703 FILLER_0_23_237
*704 FILLER_0_23_249
*705 FILLER_0_23_261
*706 FILLER_0_23_27
*707 FILLER_0_23_273
*708 FILLER_0_23_279
*709 FILLER_0_23_281
*710 FILLER_0_23_293
*711 FILLER_0_23_3
*712 FILLER_0_23_305
*713 FILLER_0_23_317
*714 FILLER_0_23_329
*715 FILLER_0_23_335
*716 FILLER_0_23_337
*717 FILLER_0_23_349
*718 FILLER_0_23_361
*719 FILLER_0_23_373
*720 FILLER_0_23_385
*721 FILLER_0_23_39
*722 FILLER_0_23_391
*723 FILLER_0_23_393
*724 FILLER_0_23_405
*725 FILLER_0_23_51
*726 FILLER_0_23_55
*727 FILLER_0_23_57
*728 FILLER_0_23_69
*729 FILLER_0_23_81
*730 FILLER_0_23_93
*731 FILLER_0_24_109
*732 FILLER_0_24_121
*733 FILLER_0_24_133
*734 FILLER_0_24_139
*735 FILLER_0_24_141
*736 FILLER_0_24_15
*737 FILLER_0_24_153
*738 FILLER_0_24_165
*739 FILLER_0_24_177
*740 FILLER_0_24_189
*741 FILLER_0_24_195
*742 FILLER_0_24_197
*743 FILLER_0_24_209
*744 FILLER_0_24_221
*745 FILLER_0_24_233
*746 FILLER_0_24_245
*747 FILLER_0_24_251
*748 FILLER_0_24_253
*749 FILLER_0_24_265
*750 FILLER_0_24_27
*751 FILLER_0_24_277
*752 FILLER_0_24_289
*753 FILLER_0_24_29
*754 FILLER_0_24_3
*755 FILLER_0_24_301
*756 FILLER_0_24_307
*757 FILLER_0_24_309
*758 FILLER_0_24_321
*759 FILLER_0_24_333
*760 FILLER_0_24_345
*761 FILLER_0_24_357
*762 FILLER_0_24_363
*763 FILLER_0_24_365
*764 FILLER_0_24_377
*765 FILLER_0_24_389
*766 FILLER_0_24_401
*767 FILLER_0_24_41
*768 FILLER_0_24_53
*769 FILLER_0_24_65
*770 FILLER_0_24_77
*771 FILLER_0_24_83
*772 FILLER_0_24_85
*773 FILLER_0_24_97
*774 FILLER_0_25_105
*775 FILLER_0_25_111
*776 FILLER_0_25_113
*777 FILLER_0_25_125
*778 FILLER_0_25_137
*779 FILLER_0_25_149
*780 FILLER_0_25_15
*781 FILLER_0_25_161
*782 FILLER_0_25_167
*783 FILLER_0_25_169
*784 FILLER_0_25_181
*785 FILLER_0_25_193
*786 FILLER_0_25_205
*787 FILLER_0_25_217
*788 FILLER_0_25_223
*789 FILLER_0_25_225
*790 FILLER_0_25_237
*791 FILLER_0_25_249
*792 FILLER_0_25_261
*793 FILLER_0_25_27
*794 FILLER_0_25_273
*795 FILLER_0_25_279
*796 FILLER_0_25_281
*797 FILLER_0_25_293
*798 FILLER_0_25_3
*799 FILLER_0_25_305
*800 FILLER_0_25_317
*801 FILLER_0_25_329
*802 FILLER_0_25_335
*803 FILLER_0_25_337
*804 FILLER_0_25_349
*805 FILLER_0_25_361
*806 FILLER_0_25_373
*807 FILLER_0_25_385
*808 FILLER_0_25_39
*809 FILLER_0_25_391
*810 FILLER_0_25_393
*811 FILLER_0_25_405
*812 FILLER_0_25_51
*813 FILLER_0_25_55
*814 FILLER_0_25_57
*815 FILLER_0_25_69
*816 FILLER_0_25_81
*817 FILLER_0_25_93
*818 FILLER_0_26_109
*819 FILLER_0_26_121
*820 FILLER_0_26_133
*821 FILLER_0_26_139
*822 FILLER_0_26_141
*823 FILLER_0_26_15
*824 FILLER_0_26_153
*825 FILLER_0_26_165
*826 FILLER_0_26_177
*827 FILLER_0_26_189
*828 FILLER_0_26_195
*829 FILLER_0_26_197
*830 FILLER_0_26_209
*831 FILLER_0_26_221
*832 FILLER_0_26_233
*833 FILLER_0_26_245
*834 FILLER_0_26_251
*835 FILLER_0_26_253
*836 FILLER_0_26_265
*837 FILLER_0_26_27
*838 FILLER_0_26_277
*839 FILLER_0_26_289
*840 FILLER_0_26_29
*841 FILLER_0_26_3
*842 FILLER_0_26_301
*843 FILLER_0_26_307
*844 FILLER_0_26_309
*845 FILLER_0_26_321
*846 FILLER_0_26_333
*847 FILLER_0_26_345
*848 FILLER_0_26_357
*849 FILLER_0_26_363
*850 FILLER_0_26_365
*851 FILLER_0_26_377
*852 FILLER_0_26_389
*853 FILLER_0_26_401
*854 FILLER_0_26_41
*855 FILLER_0_26_53
*856 FILLER_0_26_65
*857 FILLER_0_26_77
*858 FILLER_0_26_83
*859 FILLER_0_26_85
*860 FILLER_0_26_97
*861 FILLER_0_27_105
*862 FILLER_0_27_111
*863 FILLER_0_27_113
*864 FILLER_0_27_125
*865 FILLER_0_27_137
*866 FILLER_0_27_149
*867 FILLER_0_27_15
*868 FILLER_0_27_161
*869 FILLER_0_27_167
*870 FILLER_0_27_169
*871 FILLER_0_27_181
*872 FILLER_0_27_193
*873 FILLER_0_27_205
*874 FILLER_0_27_217
*875 FILLER_0_27_223
*876 FILLER_0_27_225
*877 FILLER_0_27_237
*878 FILLER_0_27_249
*879 FILLER_0_27_261
*880 FILLER_0_27_27
*881 FILLER_0_27_273
*882 FILLER_0_27_279
*883 FILLER_0_27_281
*884 FILLER_0_27_293
*885 FILLER_0_27_3
*886 FILLER_0_27_305
*887 FILLER_0_27_317
*888 FILLER_0_27_329
*889 FILLER_0_27_335
*890 FILLER_0_27_337
*891 FILLER_0_27_349
*892 FILLER_0_27_361
*893 FILLER_0_27_373
*894 FILLER_0_27_385
*895 FILLER_0_27_39
*896 FILLER_0_27_391
*897 FILLER_0_27_393
*898 FILLER_0_27_405
*899 FILLER_0_27_51
*900 FILLER_0_27_55
*901 FILLER_0_27_57
*902 FILLER_0_27_69
*903 FILLER_0_27_81
*904 FILLER_0_27_93
*905 FILLER_0_28_109
*906 FILLER_0_28_121
*907 FILLER_0_28_133
*908 FILLER_0_28_139
*909 FILLER_0_28_141
*910 FILLER_0_28_15
*911 FILLER_0_28_153
*912 FILLER_0_28_165
*913 FILLER_0_28_177
*914 FILLER_0_28_189
*915 FILLER_0_28_195
*916 FILLER_0_28_197
*917 FILLER_0_28_209
*918 FILLER_0_28_221
*919 FILLER_0_28_233
*920 FILLER_0_28_245
*921 FILLER_0_28_251
*922 FILLER_0_28_253
*923 FILLER_0_28_265
*924 FILLER_0_28_27
*925 FILLER_0_28_277
*926 FILLER_0_28_289
*927 FILLER_0_28_29
*928 FILLER_0_28_3
*929 FILLER_0_28_301
*930 FILLER_0_28_307
*931 FILLER_0_28_309
*932 FILLER_0_28_321
*933 FILLER_0_28_333
*934 FILLER_0_28_345
*935 FILLER_0_28_357
*936 FILLER_0_28_363
*937 FILLER_0_28_365
*938 FILLER_0_28_377
*939 FILLER_0_28_389
*940 FILLER_0_28_401
*941 FILLER_0_28_41
*942 FILLER_0_28_53
*943 FILLER_0_28_65
*944 FILLER_0_28_77
*945 FILLER_0_28_83
*946 FILLER_0_28_85
*947 FILLER_0_28_97
*948 FILLER_0_29_105
*949 FILLER_0_29_111
*950 FILLER_0_29_113
*951 FILLER_0_29_125
*952 FILLER_0_29_137
*953 FILLER_0_29_149
*954 FILLER_0_29_15
*955 FILLER_0_29_161
*956 FILLER_0_29_167
*957 FILLER_0_29_169
*958 FILLER_0_29_181
*959 FILLER_0_29_193
*960 FILLER_0_29_205
*961 FILLER_0_29_217
*962 FILLER_0_29_223
*963 FILLER_0_29_225
*964 FILLER_0_29_237
*965 FILLER_0_29_249
*966 FILLER_0_29_261
*967 FILLER_0_29_27
*968 FILLER_0_29_273
*969 FILLER_0_29_279
*970 FILLER_0_29_281
*971 FILLER_0_29_293
*972 FILLER_0_29_3
*973 FILLER_0_29_305
*974 FILLER_0_29_317
*975 FILLER_0_29_329
*976 FILLER_0_29_335
*977 FILLER_0_29_337
*978 FILLER_0_29_349
*979 FILLER_0_29_361
*980 FILLER_0_29_373
*981 FILLER_0_29_385
*982 FILLER_0_29_39
*983 FILLER_0_29_391
*984 FILLER_0_29_393
*985 FILLER_0_29_405
*986 FILLER_0_29_51
*987 FILLER_0_29_55
*988 FILLER_0_29_57
*989 FILLER_0_29_69
*990 FILLER_0_29_81
*991 FILLER_0_29_93
*992 FILLER_0_2_109
*993 FILLER_0_2_121
*994 FILLER_0_2_133
*995 FILLER_0_2_139
*996 FILLER_0_2_141
*997 FILLER_0_2_15
*998 FILLER_0_2_153
*999 FILLER_0_2_165
*1000 FILLER_0_2_177
*1001 FILLER_0_2_189
*1002 FILLER_0_2_195
*1003 FILLER_0_2_197
*1004 FILLER_0_2_209
*1005 FILLER_0_2_221
*1006 FILLER_0_2_233
*1007 FILLER_0_2_245
*1008 FILLER_0_2_251
*1009 FILLER_0_2_253
*1010 FILLER_0_2_265
*1011 FILLER_0_2_27
*1012 FILLER_0_2_277
*1013 FILLER_0_2_289
*1014 FILLER_0_2_29
*1015 FILLER_0_2_3
*1016 FILLER_0_2_301
*1017 FILLER_0_2_307
*1018 FILLER_0_2_309
*1019 FILLER_0_2_321
*1020 FILLER_0_2_333
*1021 FILLER_0_2_345
*1022 FILLER_0_2_357
*1023 FILLER_0_2_363
*1024 FILLER_0_2_365
*1025 FILLER_0_2_377
*1026 FILLER_0_2_389
*1027 FILLER_0_2_401
*1028 FILLER_0_2_41
*1029 FILLER_0_2_53
*1030 FILLER_0_2_65
*1031 FILLER_0_2_77
*1032 FILLER_0_2_83
*1033 FILLER_0_2_85
*1034 FILLER_0_2_97
*1035 FILLER_0_30_109
*1036 FILLER_0_30_121
*1037 FILLER_0_30_133
*1038 FILLER_0_30_139
*1039 FILLER_0_30_141
*1040 FILLER_0_30_15
*1041 FILLER_0_30_153
*1042 FILLER_0_30_165
*1043 FILLER_0_30_177
*1044 FILLER_0_30_189
*1045 FILLER_0_30_195
*1046 FILLER_0_30_197
*1047 FILLER_0_30_209
*1048 FILLER_0_30_221
*1049 FILLER_0_30_233
*1050 FILLER_0_30_245
*1051 FILLER_0_30_251
*1052 FILLER_0_30_253
*1053 FILLER_0_30_265
*1054 FILLER_0_30_27
*1055 FILLER_0_30_277
*1056 FILLER_0_30_289
*1057 FILLER_0_30_29
*1058 FILLER_0_30_3
*1059 FILLER_0_30_301
*1060 FILLER_0_30_307
*1061 FILLER_0_30_309
*1062 FILLER_0_30_321
*1063 FILLER_0_30_333
*1064 FILLER_0_30_345
*1065 FILLER_0_30_357
*1066 FILLER_0_30_363
*1067 FILLER_0_30_365
*1068 FILLER_0_30_377
*1069 FILLER_0_30_389
*1070 FILLER_0_30_401
*1071 FILLER_0_30_41
*1072 FILLER_0_30_53
*1073 FILLER_0_30_65
*1074 FILLER_0_30_77
*1075 FILLER_0_30_83
*1076 FILLER_0_30_85
*1077 FILLER_0_30_97
*1078 FILLER_0_31_105
*1079 FILLER_0_31_111
*1080 FILLER_0_31_113
*1081 FILLER_0_31_125
*1082 FILLER_0_31_137
*1083 FILLER_0_31_149
*1084 FILLER_0_31_15
*1085 FILLER_0_31_161
*1086 FILLER_0_31_167
*1087 FILLER_0_31_169
*1088 FILLER_0_31_181
*1089 FILLER_0_31_187
*1090 FILLER_0_31_190
*1091 FILLER_0_31_202
*1092 FILLER_0_31_207
*1093 FILLER_0_31_213
*1094 FILLER_0_31_221
*1095 FILLER_0_31_225
*1096 FILLER_0_31_237
*1097 FILLER_0_31_249
*1098 FILLER_0_31_261
*1099 FILLER_0_31_27
*1100 FILLER_0_31_273
*1101 FILLER_0_31_279
*1102 FILLER_0_31_281
*1103 FILLER_0_31_293
*1104 FILLER_0_31_3
*1105 FILLER_0_31_305
*1106 FILLER_0_31_317
*1107 FILLER_0_31_329
*1108 FILLER_0_31_335
*1109 FILLER_0_31_337
*1110 FILLER_0_31_349
*1111 FILLER_0_31_361
*1112 FILLER_0_31_373
*1113 FILLER_0_31_385
*1114 FILLER_0_31_39
*1115 FILLER_0_31_391
*1116 FILLER_0_31_393
*1117 FILLER_0_31_405
*1118 FILLER_0_31_51
*1119 FILLER_0_31_55
*1120 FILLER_0_31_57
*1121 FILLER_0_31_69
*1122 FILLER_0_31_81
*1123 FILLER_0_31_93
*1124 FILLER_0_32_109
*1125 FILLER_0_32_121
*1126 FILLER_0_32_133
*1127 FILLER_0_32_139
*1128 FILLER_0_32_141
*1129 FILLER_0_32_15
*1130 FILLER_0_32_153
*1131 FILLER_0_32_165
*1132 FILLER_0_32_177
*1133 FILLER_0_32_197
*1134 FILLER_0_32_223
*1135 FILLER_0_32_227
*1136 FILLER_0_32_239
*1137 FILLER_0_32_251
*1138 FILLER_0_32_253
*1139 FILLER_0_32_265
*1140 FILLER_0_32_27
*1141 FILLER_0_32_277
*1142 FILLER_0_32_289
*1143 FILLER_0_32_29
*1144 FILLER_0_32_3
*1145 FILLER_0_32_301
*1146 FILLER_0_32_307
*1147 FILLER_0_32_309
*1148 FILLER_0_32_321
*1149 FILLER_0_32_333
*1150 FILLER_0_32_345
*1151 FILLER_0_32_357
*1152 FILLER_0_32_363
*1153 FILLER_0_32_365
*1154 FILLER_0_32_377
*1155 FILLER_0_32_389
*1156 FILLER_0_32_401
*1157 FILLER_0_32_41
*1158 FILLER_0_32_53
*1159 FILLER_0_32_65
*1160 FILLER_0_32_77
*1161 FILLER_0_32_83
*1162 FILLER_0_32_85
*1163 FILLER_0_32_97
*1164 FILLER_0_33_105
*1165 FILLER_0_33_111
*1166 FILLER_0_33_113
*1167 FILLER_0_33_125
*1168 FILLER_0_33_137
*1169 FILLER_0_33_149
*1170 FILLER_0_33_161
*1171 FILLER_0_33_167
*1172 FILLER_0_33_169
*1173 FILLER_0_33_18
*1174 FILLER_0_33_181
*1175 FILLER_0_33_193
*1176 FILLER_0_33_203
*1177 FILLER_0_33_207
*1178 FILLER_0_33_213
*1179 FILLER_0_33_221
*1180 FILLER_0_33_225
*1181 FILLER_0_33_237
*1182 FILLER_0_33_249
*1183 FILLER_0_33_261
*1184 FILLER_0_33_273
*1185 FILLER_0_33_279
*1186 FILLER_0_33_281
*1187 FILLER_0_33_293
*1188 FILLER_0_33_30
*1189 FILLER_0_33_305
*1190 FILLER_0_33_317
*1191 FILLER_0_33_329
*1192 FILLER_0_33_335
*1193 FILLER_0_33_337
*1194 FILLER_0_33_349
*1195 FILLER_0_33_361
*1196 FILLER_0_33_373
*1197 FILLER_0_33_385
*1198 FILLER_0_33_391
*1199 FILLER_0_33_393
*1200 FILLER_0_33_42
*1201 FILLER_0_33_54
*1202 FILLER_0_33_57
*1203 FILLER_0_33_6
*1204 FILLER_0_33_69
*1205 FILLER_0_33_81
*1206 FILLER_0_33_93
*1207 FILLER_0_34_109
*1208 FILLER_0_34_121
*1209 FILLER_0_34_133
*1210 FILLER_0_34_139
*1211 FILLER_0_34_141
*1212 FILLER_0_34_15
*1213 FILLER_0_34_153
*1214 FILLER_0_34_165
*1215 FILLER_0_34_177
*1216 FILLER_0_34_189
*1217 FILLER_0_34_195
*1218 FILLER_0_34_197
*1219 FILLER_0_34_209
*1220 FILLER_0_34_221
*1221 FILLER_0_34_233
*1222 FILLER_0_34_245
*1223 FILLER_0_34_251
*1224 FILLER_0_34_253
*1225 FILLER_0_34_265
*1226 FILLER_0_34_27
*1227 FILLER_0_34_277
*1228 FILLER_0_34_289
*1229 FILLER_0_34_29
*1230 FILLER_0_34_3
*1231 FILLER_0_34_301
*1232 FILLER_0_34_307
*1233 FILLER_0_34_309
*1234 FILLER_0_34_321
*1235 FILLER_0_34_333
*1236 FILLER_0_34_345
*1237 FILLER_0_34_357
*1238 FILLER_0_34_363
*1239 FILLER_0_34_365
*1240 FILLER_0_34_377
*1241 FILLER_0_34_389
*1242 FILLER_0_34_401
*1243 FILLER_0_34_41
*1244 FILLER_0_34_53
*1245 FILLER_0_34_65
*1246 FILLER_0_34_77
*1247 FILLER_0_34_83
*1248 FILLER_0_34_85
*1249 FILLER_0_34_97
*1250 FILLER_0_35_105
*1251 FILLER_0_35_111
*1252 FILLER_0_35_113
*1253 FILLER_0_35_125
*1254 FILLER_0_35_137
*1255 FILLER_0_35_149
*1256 FILLER_0_35_15
*1257 FILLER_0_35_161
*1258 FILLER_0_35_167
*1259 FILLER_0_35_169
*1260 FILLER_0_35_181
*1261 FILLER_0_35_193
*1262 FILLER_0_35_205
*1263 FILLER_0_35_217
*1264 FILLER_0_35_223
*1265 FILLER_0_35_225
*1266 FILLER_0_35_237
*1267 FILLER_0_35_249
*1268 FILLER_0_35_261
*1269 FILLER_0_35_27
*1270 FILLER_0_35_273
*1271 FILLER_0_35_279
*1272 FILLER_0_35_281
*1273 FILLER_0_35_293
*1274 FILLER_0_35_3
*1275 FILLER_0_35_305
*1276 FILLER_0_35_317
*1277 FILLER_0_35_329
*1278 FILLER_0_35_335
*1279 FILLER_0_35_337
*1280 FILLER_0_35_349
*1281 FILLER_0_35_361
*1282 FILLER_0_35_373
*1283 FILLER_0_35_385
*1284 FILLER_0_35_39
*1285 FILLER_0_35_391
*1286 FILLER_0_35_393
*1287 FILLER_0_35_405
*1288 FILLER_0_35_51
*1289 FILLER_0_35_55
*1290 FILLER_0_35_57
*1291 FILLER_0_35_69
*1292 FILLER_0_35_81
*1293 FILLER_0_35_93
*1294 FILLER_0_36_109
*1295 FILLER_0_36_121
*1296 FILLER_0_36_133
*1297 FILLER_0_36_139
*1298 FILLER_0_36_141
*1299 FILLER_0_36_15
*1300 FILLER_0_36_153
*1301 FILLER_0_36_165
*1302 FILLER_0_36_177
*1303 FILLER_0_36_189
*1304 FILLER_0_36_195
*1305 FILLER_0_36_197
*1306 FILLER_0_36_209
*1307 FILLER_0_36_221
*1308 FILLER_0_36_233
*1309 FILLER_0_36_245
*1310 FILLER_0_36_251
*1311 FILLER_0_36_253
*1312 FILLER_0_36_265
*1313 FILLER_0_36_27
*1314 FILLER_0_36_277
*1315 FILLER_0_36_289
*1316 FILLER_0_36_29
*1317 FILLER_0_36_3
*1318 FILLER_0_36_301
*1319 FILLER_0_36_307
*1320 FILLER_0_36_309
*1321 FILLER_0_36_321
*1322 FILLER_0_36_333
*1323 FILLER_0_36_345
*1324 FILLER_0_36_357
*1325 FILLER_0_36_363
*1326 FILLER_0_36_365
*1327 FILLER_0_36_377
*1328 FILLER_0_36_389
*1329 FILLER_0_36_401
*1330 FILLER_0_36_41
*1331 FILLER_0_36_53
*1332 FILLER_0_36_65
*1333 FILLER_0_36_77
*1334 FILLER_0_36_83
*1335 FILLER_0_36_85
*1336 FILLER_0_36_97
*1337 FILLER_0_37_105
*1338 FILLER_0_37_111
*1339 FILLER_0_37_113
*1340 FILLER_0_37_125
*1341 FILLER_0_37_137
*1342 FILLER_0_37_149
*1343 FILLER_0_37_15
*1344 FILLER_0_37_161
*1345 FILLER_0_37_167
*1346 FILLER_0_37_169
*1347 FILLER_0_37_181
*1348 FILLER_0_37_193
*1349 FILLER_0_37_205
*1350 FILLER_0_37_217
*1351 FILLER_0_37_223
*1352 FILLER_0_37_225
*1353 FILLER_0_37_237
*1354 FILLER_0_37_249
*1355 FILLER_0_37_261
*1356 FILLER_0_37_27
*1357 FILLER_0_37_273
*1358 FILLER_0_37_279
*1359 FILLER_0_37_281
*1360 FILLER_0_37_293
*1361 FILLER_0_37_3
*1362 FILLER_0_37_305
*1363 FILLER_0_37_317
*1364 FILLER_0_37_329
*1365 FILLER_0_37_335
*1366 FILLER_0_37_337
*1367 FILLER_0_37_349
*1368 FILLER_0_37_361
*1369 FILLER_0_37_373
*1370 FILLER_0_37_385
*1371 FILLER_0_37_39
*1372 FILLER_0_37_391
*1373 FILLER_0_37_393
*1374 FILLER_0_37_405
*1375 FILLER_0_37_51
*1376 FILLER_0_37_55
*1377 FILLER_0_37_57
*1378 FILLER_0_37_69
*1379 FILLER_0_37_81
*1380 FILLER_0_37_93
*1381 FILLER_0_38_109
*1382 FILLER_0_38_121
*1383 FILLER_0_38_133
*1384 FILLER_0_38_139
*1385 FILLER_0_38_141
*1386 FILLER_0_38_15
*1387 FILLER_0_38_153
*1388 FILLER_0_38_165
*1389 FILLER_0_38_177
*1390 FILLER_0_38_189
*1391 FILLER_0_38_195
*1392 FILLER_0_38_197
*1393 FILLER_0_38_209
*1394 FILLER_0_38_221
*1395 FILLER_0_38_233
*1396 FILLER_0_38_245
*1397 FILLER_0_38_251
*1398 FILLER_0_38_253
*1399 FILLER_0_38_265
*1400 FILLER_0_38_27
*1401 FILLER_0_38_277
*1402 FILLER_0_38_289
*1403 FILLER_0_38_29
*1404 FILLER_0_38_3
*1405 FILLER_0_38_301
*1406 FILLER_0_38_307
*1407 FILLER_0_38_309
*1408 FILLER_0_38_321
*1409 FILLER_0_38_333
*1410 FILLER_0_38_345
*1411 FILLER_0_38_357
*1412 FILLER_0_38_363
*1413 FILLER_0_38_365
*1414 FILLER_0_38_377
*1415 FILLER_0_38_389
*1416 FILLER_0_38_401
*1417 FILLER_0_38_41
*1418 FILLER_0_38_53
*1419 FILLER_0_38_65
*1420 FILLER_0_38_77
*1421 FILLER_0_38_83
*1422 FILLER_0_38_85
*1423 FILLER_0_38_97
*1424 FILLER_0_39_105
*1425 FILLER_0_39_111
*1426 FILLER_0_39_113
*1427 FILLER_0_39_125
*1428 FILLER_0_39_137
*1429 FILLER_0_39_149