*SPEF "ieee 1481-1999"
*DESIGN "arbiter_cell_two_bits_fc"
*DATE "11:11:11 Fri 11 11, 1111"
*VENDOR "OpenRCX"
*PROGRAM "Parallel Extraction"
*VERSION "1.0"
*DESIGN_FLOW "NAME_SCOPE LOCAL" "PIN_CAP NONE"
*DIVIDER /
*DELIMITER :
*BUS_DELIMITER []
*T_UNIT 1 NS
*C_UNIT 1 PF
*R_UNIT 1 OHM
*L_UNIT 1 HENRY

*NAME_MAP
*3 g0
*4 g1
*5 gc
*6 r0
*7 r1
*8 rc
*9 net1
*10 net10
*11 net11
*12 net12
*13 net13
*14 net14
*15 net15
*16 net2
*17 net3
*18 net4
*19 net5
*20 net6
*21 net7
*22 net8
*23 net9
*24 ANTENNA_output6_A
*25 ANTENNA_x2_B
*26 ANTENNA_x5_A
*27 ANTENNA_x6_A
*28 FILLER_0_0_109
*29 FILLER_0_0_113
*30 FILLER_0_0_125
*31 FILLER_0_0_137
*32 FILLER_0_0_141
*33 FILLER_0_0_15
*34 FILLER_0_0_153
*35 FILLER_0_0_165
*36 FILLER_0_0_169
*37 FILLER_0_0_181
*38 FILLER_0_0_193
*39 FILLER_0_0_197
*40 FILLER_0_0_209
*41 FILLER_0_0_221
*42 FILLER_0_0_225
*43 FILLER_0_0_237
*44 FILLER_0_0_249
*45 FILLER_0_0_253
*46 FILLER_0_0_265
*47 FILLER_0_0_27
*48 FILLER_0_0_277
*49 FILLER_0_0_281
*50 FILLER_0_0_29
*51 FILLER_0_0_293
*52 FILLER_0_0_3
*53 FILLER_0_0_305
*54 FILLER_0_0_309
*55 FILLER_0_0_321
*56 FILLER_0_0_333
*57 FILLER_0_0_337
*58 FILLER_0_0_349
*59 FILLER_0_0_361
*60 FILLER_0_0_365
*61 FILLER_0_0_377
*62 FILLER_0_0_389
*63 FILLER_0_0_393
*64 FILLER_0_0_405
*65 FILLER_0_0_41
*66 FILLER_0_0_53
*67 FILLER_0_0_57
*68 FILLER_0_0_69
*69 FILLER_0_0_81
*70 FILLER_0_0_85
*71 FILLER_0_0_97
*72 FILLER_0_10_109
*73 FILLER_0_10_121
*74 FILLER_0_10_133
*75 FILLER_0_10_139
*76 FILLER_0_10_141
*77 FILLER_0_10_15
*78 FILLER_0_10_153
*79 FILLER_0_10_165
*80 FILLER_0_10_177
*81 FILLER_0_10_189
*82 FILLER_0_10_195
*83 FILLER_0_10_197
*84 FILLER_0_10_209
*85 FILLER_0_10_221
*86 FILLER_0_10_233
*87 FILLER_0_10_245
*88 FILLER_0_10_251
*89 FILLER_0_10_253
*90 FILLER_0_10_265
*91 FILLER_0_10_27
*92 FILLER_0_10_277
*93 FILLER_0_10_289
*94 FILLER_0_10_29
*95 FILLER_0_10_3
*96 FILLER_0_10_301
*97 FILLER_0_10_307
*98 FILLER_0_10_309
*99 FILLER_0_10_321
*100 FILLER_0_10_333
*101 FILLER_0_10_345
*102 FILLER_0_10_357
*103 FILLER_0_10_363
*104 FILLER_0_10_365
*105 FILLER_0_10_377
*106 FILLER_0_10_389
*107 FILLER_0_10_401
*108 FILLER_0_10_41
*109 FILLER_0_10_53
*110 FILLER_0_10_65
*111 FILLER_0_10_77
*112 FILLER_0_10_83
*113 FILLER_0_10_85
*114 FILLER_0_10_97
*115 FILLER_0_11_105
*116 FILLER_0_11_111
*117 FILLER_0_11_113
*118 FILLER_0_11_125
*119 FILLER_0_11_137
*120 FILLER_0_11_149
*121 FILLER_0_11_15
*122 FILLER_0_11_161
*123 FILLER_0_11_167
*124 FILLER_0_11_169
*125 FILLER_0_11_181
*126 FILLER_0_11_193
*127 FILLER_0_11_205
*128 FILLER_0_11_217
*129 FILLER_0_11_223
*130 FILLER_0_11_225
*131 FILLER_0_11_237
*132 FILLER_0_11_249
*133 FILLER_0_11_261
*134 FILLER_0_11_27
*135 FILLER_0_11_273
*136 FILLER_0_11_279
*137 FILLER_0_11_281
*138 FILLER_0_11_293
*139 FILLER_0_11_3
*140 FILLER_0_11_305
*141 FILLER_0_11_317
*142 FILLER_0_11_329
*143 FILLER_0_11_335
*144 FILLER_0_11_337
*145 FILLER_0_11_349
*146 FILLER_0_11_361
*147 FILLER_0_11_373
*148 FILLER_0_11_385
*149 FILLER_0_11_39
*150 FILLER_0_11_391
*151 FILLER_0_11_393
*152 FILLER_0_11_405
*153 FILLER_0_11_51
*154 FILLER_0_11_55
*155 FILLER_0_11_57
*156 FILLER_0_11_69
*157 FILLER_0_11_81
*158 FILLER_0_11_93
*159 FILLER_0_12_109
*160 FILLER_0_12_121
*161 FILLER_0_12_133
*162 FILLER_0_12_139
*163 FILLER_0_12_141
*164 FILLER_0_12_15
*165 FILLER_0_12_153
*166 FILLER_0_12_165
*167 FILLER_0_12_177
*168 FILLER_0_12_189
*169 FILLER_0_12_195
*170 FILLER_0_12_197
*171 FILLER_0_12_209
*172 FILLER_0_12_221
*173 FILLER_0_12_233
*174 FILLER_0_12_245
*175 FILLER_0_12_251
*176 FILLER_0_12_253
*177 FILLER_0_12_265
*178 FILLER_0_12_27
*179 FILLER_0_12_277
*180 FILLER_0_12_289
*181 FILLER_0_12_29
*182 FILLER_0_12_3
*183 FILLER_0_12_301
*184 FILLER_0_12_307
*185 FILLER_0_12_309
*186 FILLER_0_12_321
*187 FILLER_0_12_333
*188 FILLER_0_12_345
*189 FILLER_0_12_357
*190 FILLER_0_12_363
*191 FILLER_0_12_365
*192 FILLER_0_12_377
*193 FILLER_0_12_389
*194 FILLER_0_12_401
*195 FILLER_0_12_41
*196 FILLER_0_12_53
*197 FILLER_0_12_65
*198 FILLER_0_12_77
*199 FILLER_0_12_83
*200 FILLER_0_12_85
*201 FILLER_0_12_97
*202 FILLER_0_13_105
*203 FILLER_0_13_111
*204 FILLER_0_13_113
*205 FILLER_0_13_125
*206 FILLER_0_13_137
*207 FILLER_0_13_149
*208 FILLER_0_13_15
*209 FILLER_0_13_161
*210 FILLER_0_13_167
*211 FILLER_0_13_169
*212 FILLER_0_13_181
*213 FILLER_0_13_193
*214 FILLER_0_13_205
*215 FILLER_0_13_217
*216 FILLER_0_13_223
*217 FILLER_0_13_225
*218 FILLER_0_13_237
*219 FILLER_0_13_249
*220 FILLER_0_13_261
*221 FILLER_0_13_27
*222 FILLER_0_13_273
*223 FILLER_0_13_279
*224 FILLER_0_13_281
*225 FILLER_0_13_293
*226 FILLER_0_13_3
*227 FILLER_0_13_305
*228 FILLER_0_13_317
*229 FILLER_0_13_329
*230 FILLER_0_13_335
*231 FILLER_0_13_337
*232 FILLER_0_13_349
*233 FILLER_0_13_361
*234 FILLER_0_13_373
*235 FILLER_0_13_385
*236 FILLER_0_13_39
*237 FILLER_0_13_391
*238 FILLER_0_13_393
*239 FILLER_0_13_405
*240 FILLER_0_13_51
*241 FILLER_0_13_55
*242 FILLER_0_13_57
*243 FILLER_0_13_69
*244 FILLER_0_13_81
*245 FILLER_0_13_93
*246 FILLER_0_14_109
*247 FILLER_0_14_121
*248 FILLER_0_14_133
*249 FILLER_0_14_139
*250 FILLER_0_14_141
*251 FILLER_0_14_15
*252 FILLER_0_14_153
*253 FILLER_0_14_165
*254 FILLER_0_14_177
*255 FILLER_0_14_189
*256 FILLER_0_14_195
*257 FILLER_0_14_197
*258 FILLER_0_14_209
*259 FILLER_0_14_221
*260 FILLER_0_14_233
*261 FILLER_0_14_245
*262 FILLER_0_14_251
*263 FILLER_0_14_253
*264 FILLER_0_14_265
*265 FILLER_0_14_27
*266 FILLER_0_14_277
*267 FILLER_0_14_289
*268 FILLER_0_14_29
*269 FILLER_0_14_3
*270 FILLER_0_14_301
*271 FILLER_0_14_307
*272 FILLER_0_14_309
*273 FILLER_0_14_321
*274 FILLER_0_14_333
*275 FILLER_0_14_345
*276 FILLER_0_14_357
*277 FILLER_0_14_363
*278 FILLER_0_14_365
*279 FILLER_0_14_377
*280 FILLER_0_14_389
*281 FILLER_0_14_397
*282 FILLER_0_14_41
*283 FILLER_0_14_53
*284 FILLER_0_14_65
*285 FILLER_0_14_77
*286 FILLER_0_14_83
*287 FILLER_0_14_85
*288 FILLER_0_14_97
*289 FILLER_0_15_105
*290 FILLER_0_15_111
*291 FILLER_0_15_113
*292 FILLER_0_15_125
*293 FILLER_0_15_137
*294 FILLER_0_15_149
*295 FILLER_0_15_15
*296 FILLER_0_15_161
*297 FILLER_0_15_167
*298 FILLER_0_15_169
*299 FILLER_0_15_181
*300 FILLER_0_15_193
*301 FILLER_0_15_205
*302 FILLER_0_15_217
*303 FILLER_0_15_223
*304 FILLER_0_15_225
*305 FILLER_0_15_237
*306 FILLER_0_15_249
*307 FILLER_0_15_261
*308 FILLER_0_15_27
*309 FILLER_0_15_273
*310 FILLER_0_15_279
*311 FILLER_0_15_281
*312 FILLER_0_15_293
*313 FILLER_0_15_3
*314 FILLER_0_15_305
*315 FILLER_0_15_317
*316 FILLER_0_15_329
*317 FILLER_0_15_335
*318 FILLER_0_15_337
*319 FILLER_0_15_349
*320 FILLER_0_15_361
*321 FILLER_0_15_373
*322 FILLER_0_15_385
*323 FILLER_0_15_39
*324 FILLER_0_15_391
*325 FILLER_0_15_393
*326 FILLER_0_15_405
*327 FILLER_0_15_51
*328 FILLER_0_15_55
*329 FILLER_0_15_57
*330 FILLER_0_15_69
*331 FILLER_0_15_81
*332 FILLER_0_15_93
*333 FILLER_0_16_109
*334 FILLER_0_16_121
*335 FILLER_0_16_133
*336 FILLER_0_16_139
*337 FILLER_0_16_141
*338 FILLER_0_16_15
*339 FILLER_0_16_153
*340 FILLER_0_16_165
*341 FILLER_0_16_177
*342 FILLER_0_16_189
*343 FILLER_0_16_195
*344 FILLER_0_16_197
*345 FILLER_0_16_209
*346 FILLER_0_16_221
*347 FILLER_0_16_233
*348 FILLER_0_16_245
*349 FILLER_0_16_251
*350 FILLER_0_16_253
*351 FILLER_0_16_265
*352 FILLER_0_16_27
*353 FILLER_0_16_277
*354 FILLER_0_16_289
*355 FILLER_0_16_29
*356 FILLER_0_16_3
*357 FILLER_0_16_301
*358 FILLER_0_16_307
*359 FILLER_0_16_309
*360 FILLER_0_16_321
*361 FILLER_0_16_333
*362 FILLER_0_16_345
*363 FILLER_0_16_357
*364 FILLER_0_16_363
*365 FILLER_0_16_365
*366 FILLER_0_16_377
*367 FILLER_0_16_389
*368 FILLER_0_16_401
*369 FILLER_0_16_41
*370 FILLER_0_16_53
*371 FILLER_0_16_65
*372 FILLER_0_16_77
*373 FILLER_0_16_83
*374 FILLER_0_16_85
*375 FILLER_0_16_97
*376 FILLER_0_17_105
*377 FILLER_0_17_111
*378 FILLER_0_17_113
*379 FILLER_0_17_125
*380 FILLER_0_17_137
*381 FILLER_0_17_149
*382 FILLER_0_17_15
*383 FILLER_0_17_161
*384 FILLER_0_17_167
*385 FILLER_0_17_169
*386 FILLER_0_17_181
*387 FILLER_0_17_193
*388 FILLER_0_17_205
*389 FILLER_0_17_217
*390 FILLER_0_17_223
*391 FILLER_0_17_225
*392 FILLER_0_17_237
*393 FILLER_0_17_249
*394 FILLER_0_17_261
*395 FILLER_0_17_27
*396 FILLER_0_17_273
*397 FILLER_0_17_279
*398 FILLER_0_17_281
*399 FILLER_0_17_293
*400 FILLER_0_17_3
*401 FILLER_0_17_305
*402 FILLER_0_17_317
*403 FILLER_0_17_329
*404 FILLER_0_17_335
*405 FILLER_0_17_337
*406 FILLER_0_17_349
*407 FILLER_0_17_361
*408 FILLER_0_17_373
*409 FILLER_0_17_385
*410 FILLER_0_17_39
*411 FILLER_0_17_391
*412 FILLER_0_17_393
*413 FILLER_0_17_405
*414 FILLER_0_17_51
*415 FILLER_0_17_55
*416 FILLER_0_17_57
*417 FILLER_0_17_69
*418 FILLER_0_17_81
*419 FILLER_0_17_93
*420 FILLER_0_18_109
*421 FILLER_0_18_121
*422 FILLER_0_18_133
*423 FILLER_0_18_139
*424 FILLER_0_18_141
*425 FILLER_0_18_15
*426 FILLER_0_18_153
*427 FILLER_0_18_165
*428 FILLER_0_18_177
*429 FILLER_0_18_189
*430 FILLER_0_18_195
*431 FILLER_0_18_197
*432 FILLER_0_18_209
*433 FILLER_0_18_221
*434 FILLER_0_18_233
*435 FILLER_0_18_245
*436 FILLER_0_18_251
*437 FILLER_0_18_253
*438 FILLER_0_18_265
*439 FILLER_0_18_27
*440 FILLER_0_18_277
*441 FILLER_0_18_289
*442 FILLER_0_18_29
*443 FILLER_0_18_3
*444 FILLER_0_18_301
*445 FILLER_0_18_307
*446 FILLER_0_18_309
*447 FILLER_0_18_321
*448 FILLER_0_18_333
*449 FILLER_0_18_345
*450 FILLER_0_18_357
*451 FILLER_0_18_363
*452 FILLER_0_18_365
*453 FILLER_0_18_377
*454 FILLER_0_18_389
*455 FILLER_0_18_401
*456 FILLER_0_18_41
*457 FILLER_0_18_53
*458 FILLER_0_18_65
*459 FILLER_0_18_77
*460 FILLER_0_18_83
*461 FILLER_0_18_85
*462 FILLER_0_18_97
*463 FILLER_0_19_105
*464 FILLER_0_19_111
*465 FILLER_0_19_113
*466 FILLER_0_19_125
*467 FILLER_0_19_137
*468 FILLER_0_19_149
*469 FILLER_0_19_15
*470 FILLER_0_19_161
*471 FILLER_0_19_167
*472 FILLER_0_19_169
*473 FILLER_0_19_181
*474 FILLER_0_19_193
*475 FILLER_0_19_205
*476 FILLER_0_19_217
*477 FILLER_0_19_223
*478 FILLER_0_19_225
*479 FILLER_0_19_237
*480 FILLER_0_19_249
*481 FILLER_0_19_261
*482 FILLER_0_19_27
*483 FILLER_0_19_273
*484 FILLER_0_19_279
*485 FILLER_0_19_281
*486 FILLER_0_19_293
*487 FILLER_0_19_3
*488 FILLER_0_19_305
*489 FILLER_0_19_317
*490 FILLER_0_19_329
*491 FILLER_0_19_335
*492 FILLER_0_19_337
*493 FILLER_0_19_349
*494 FILLER_0_19_361
*495 FILLER_0_19_373
*496 FILLER_0_19_385
*497 FILLER_0_19_39
*498 FILLER_0_19_391
*499 FILLER_0_19_393
*500 FILLER_0_19_405
*501 FILLER_0_19_51
*502 FILLER_0_19_55
*503 FILLER_0_19_57
*504 FILLER_0_19_69
*505 FILLER_0_19_81
*506 FILLER_0_19_93
*507 FILLER_0_1_105
*508 FILLER_0_1_111
*509 FILLER_0_1_113
*510 FILLER_0_1_125
*511 FILLER_0_1_137
*512 FILLER_0_1_149
*513 FILLER_0_1_15
*514 FILLER_0_1_161
*515 FILLER_0_1_167
*516 FILLER_0_1_169
*517 FILLER_0_1_181
*518 FILLER_0_1_193
*519 FILLER_0_1_205
*520 FILLER_0_1_217
*521 FILLER_0_1_223
*522 FILLER_0_1_225
*523 FILLER_0_1_237
*524 FILLER_0_1_249
*525 FILLER_0_1_261
*526 FILLER_0_1_27
*527 FILLER_0_1_273
*528 FILLER_0_1_279
*529 FILLER_0_1_281
*530 FILLER_0_1_293
*531 FILLER_0_1_3
*532 FILLER_0_1_305
*533 FILLER_0_1_317
*534 FILLER_0_1_329
*535 FILLER_0_1_335
*536 FILLER_0_1_337
*537 FILLER_0_1_349
*538 FILLER_0_1_361
*539 FILLER_0_1_373
*540 FILLER_0_1_385
*541 FILLER_0_1_39
*542 FILLER_0_1_391
*543 FILLER_0_1_393
*544 FILLER_0_1_405
*545 FILLER_0_1_51
*546 FILLER_0_1_55
*547 FILLER_0_1_57
*548 FILLER_0_1_69
*549 FILLER_0_1_81
*550 FILLER_0_1_93
*551 FILLER_0_20_109
*552 FILLER_0_20_121
*553 FILLER_0_20_133
*554 FILLER_0_20_139
*555 FILLER_0_20_141
*556 FILLER_0_20_15
*557 FILLER_0_20_153
*558 FILLER_0_20_165
*559 FILLER_0_20_177
*560 FILLER_0_20_189
*561 FILLER_0_20_195
*562 FILLER_0_20_197
*563 FILLER_0_20_209
*564 FILLER_0_20_221
*565 FILLER_0_20_233
*566 FILLER_0_20_245
*567 FILLER_0_20_251
*568 FILLER_0_20_253
*569 FILLER_0_20_265
*570 FILLER_0_20_27
*571 FILLER_0_20_277
*572 FILLER_0_20_289
*573 FILLER_0_20_29
*574 FILLER_0_20_3
*575 FILLER_0_20_301
*576 FILLER_0_20_307
*577 FILLER_0_20_309
*578 FILLER_0_20_321
*579 FILLER_0_20_333
*580 FILLER_0_20_345
*581 FILLER_0_20_357
*582 FILLER_0_20_363
*583 FILLER_0_20_365
*584 FILLER_0_20_377
*585 FILLER_0_20_389
*586 FILLER_0_20_401
*587 FILLER_0_20_41
*588 FILLER_0_20_53
*589 FILLER_0_20_65
*590 FILLER_0_20_77
*591 FILLER_0_20_83
*592 FILLER_0_20_85
*593 FILLER_0_20_97
*594 FILLER_0_21_105
*595 FILLER_0_21_111
*596 FILLER_0_21_113
*597 FILLER_0_21_125
*598 FILLER_0_21_137
*599 FILLER_0_21_149
*600 FILLER_0_21_15
*601 FILLER_0_21_161
*602 FILLER_0_21_167
*603 FILLER_0_21_169
*604 FILLER_0_21_181
*605 FILLER_0_21_193
*606 FILLER_0_21_205
*607 FILLER_0_21_217
*608 FILLER_0_21_223
*609 FILLER_0_21_225
*610 FILLER_0_21_237
*611 FILLER_0_21_249
*612 FILLER_0_21_261
*613 FILLER_0_21_27
*614 FILLER_0_21_273
*615 FILLER_0_21_279
*616 FILLER_0_21_281
*617 FILLER_0_21_293
*618 FILLER_0_21_3
*619 FILLER_0_21_305
*620 FILLER_0_21_317
*621 FILLER_0_21_329
*622 FILLER_0_21_335
*623 FILLER_0_21_337
*624 FILLER_0_21_349
*625 FILLER_0_21_361
*626 FILLER_0_21_373
*627 FILLER_0_21_385
*628 FILLER_0_21_39
*629 FILLER_0_21_391
*630 FILLER_0_21_393
*631 FILLER_0_21_405
*632 FILLER_0_21_51
*633 FILLER_0_21_55
*634 FILLER_0_21_57
*635 FILLER_0_21_69
*636 FILLER_0_21_81
*637 FILLER_0_21_93
*638 FILLER_0_22_109
*639 FILLER_0_22_121
*640 FILLER_0_22_133
*641 FILLER_0_22_139
*642 FILLER_0_22_141
*643 FILLER_0_22_15
*644 FILLER_0_22_153
*645 FILLER_0_22_165
*646 FILLER_0_22_177
*647 FILLER_0_22_189
*648 FILLER_0_22_195
*649 FILLER_0_22_197
*650 FILLER_0_22_209
*651 FILLER_0_22_221
*652 FILLER_0_22_233
*653 FILLER_0_22_245
*654 FILLER_0_22_251
*655 FILLER_0_22_253
*656 FILLER_0_22_265
*657 FILLER_0_22_27
*658 FILLER_0_22_277
*659 FILLER_0_22_289
*660 FILLER_0_22_29
*661 FILLER_0_22_3
*662 FILLER_0_22_301
*663 FILLER_0_22_307
*664 FILLER_0_22_309
*665 FILLER_0_22_321
*666 FILLER_0_22_333
*667 FILLER_0_22_345
*668 FILLER_0_22_357
*669 FILLER_0_22_363
*670 FILLER_0_22_365
*671 FILLER_0_22_377
*672 FILLER_0_22_389
*673 FILLER_0_22_401
*674 FILLER_0_22_41
*675 FILLER_0_22_53
*676 FILLER_0_22_65
*677 FILLER_0_22_77
*678 FILLER_0_22_83
*679 FILLER_0_22_85
*680 FILLER_0_22_97
*681 FILLER_0_23_105
*682 FILLER_0_23_111
*683 FILLER_0_23_113
*684 FILLER_0_23_125
*685 FILLER_0_23_137
*686 FILLER_0_23_149
*687 FILLER_0_23_15
*688 FILLER_0_23_161
*689 FILLER_0_23_167
*690 FILLER_0_23_169
*691 FILLER_0_23_181
*692 FILLER_0_23_193
*693 FILLER_0_23_205
*694 FILLER_0_23_217
*695 FILLER_0_23_223
*696 FILLER_0_23_225
*697 FILLER_0_23_237
*698 FILLER_0_23_249
*699 FILLER_0_23_261
*700 FILLER_0_23_27
*701 FILLER_0_23_273
*702 FILLER_0_23_279
*703 FILLER_0_23_281
*704 FILLER_0_23_293
*705 FILLER_0_23_3
*706 FILLER_0_23_305
*707 FILLER_0_23_317
*708 FILLER_0_23_329
*709 FILLER_0_23_335
*710 FILLER_0_23_337
*711 FILLER_0_23_349
*712 FILLER_0_23_361
*713 FILLER_0_23_373
*714 FILLER_0_23_385
*715 FILLER_0_23_39
*716 FILLER_0_23_391
*717 FILLER_0_23_393
*718 FILLER_0_23_405
*719 FILLER_0_23_51
*720 FILLER_0_23_55
*721 FILLER_0_23_57
*722 FILLER_0_23_69
*723 FILLER_0_23_81
*724 FILLER_0_23_93
*725 FILLER_0_24_109
*726 FILLER_0_24_121
*727 FILLER_0_24_133
*728 FILLER_0_24_139
*729 FILLER_0_24_141
*730 FILLER_0_24_153
*731 FILLER_0_24_165
*732 FILLER_0_24_177
*733 FILLER_0_24_189
*734 FILLER_0_24_195
*735 FILLER_0_24_197
*736 FILLER_0_24_20
*737 FILLER_0_24_209
*738 FILLER_0_24_221
*739 FILLER_0_24_233
*740 FILLER_0_24_245
*741 FILLER_0_24_251
*742 FILLER_0_24_253
*743 FILLER_0_24_265
*744 FILLER_0_24_277
*745 FILLER_0_24_289
*746 FILLER_0_24_29
*747 FILLER_0_24_301
*748 FILLER_0_24_307
*749 FILLER_0_24_309
*750 FILLER_0_24_321
*751 FILLER_0_24_333
*752 FILLER_0_24_345
*753 FILLER_0_24_357
*754 FILLER_0_24_363
*755 FILLER_0_24_365
*756 FILLER_0_24_377
*757 FILLER_0_24_389
*758 FILLER_0_24_401
*759 FILLER_0_24_41
*760 FILLER_0_24_53
*761 FILLER_0_24_6
*762 FILLER_0_24_65
*763 FILLER_0_24_77
*764 FILLER_0_24_83
*765 FILLER_0_24_85
*766 FILLER_0_24_97
*767 FILLER_0_25_105
*768 FILLER_0_25_111
*769 FILLER_0_25_113
*770 FILLER_0_25_125
*771 FILLER_0_25_137
*772 FILLER_0_25_149
*773 FILLER_0_25_161
*774 FILLER_0_25_167
*775 FILLER_0_25_169
*776 FILLER_0_25_181
*777 FILLER_0_25_193
*778 FILLER_0_25_20
*779 FILLER_0_25_205
*780 FILLER_0_25_217
*781 FILLER_0_25_223
*782 FILLER_0_25_225
*783 FILLER_0_25_237
*784 FILLER_0_25_249
*785 FILLER_0_25_261
*786 FILLER_0_25_273
*787 FILLER_0_25_279
*788 FILLER_0_25_281
*789 FILLER_0_25_293
*790 FILLER_0_25_3
*791 FILLER_0_25_305
*792 FILLER_0_25_317
*793 FILLER_0_25_32
*794 FILLER_0_25_329
*795 FILLER_0_25_335
*796 FILLER_0_25_337
*797 FILLER_0_25_349
*798 FILLER_0_25_361
*799 FILLER_0_25_373
*800 FILLER_0_25_385
*801 FILLER_0_25_391
*802 FILLER_0_25_393
*803 FILLER_0_25_405
*804 FILLER_0_25_44
*805 FILLER_0_25_57
*806 FILLER_0_25_69
*807 FILLER_0_25_81
*808 FILLER_0_25_93
*809 FILLER_0_26_109
*810 FILLER_0_26_121
*811 FILLER_0_26_133
*812 FILLER_0_26_139
*813 FILLER_0_26_141
*814 FILLER_0_26_153
*815 FILLER_0_26_165
*816 FILLER_0_26_177
*817 FILLER_0_26_189
*818 FILLER_0_26_195
*819 FILLER_0_26_197
*820 FILLER_0_26_209
*821 FILLER_0_26_221
*822 FILLER_0_26_23
*823 FILLER_0_26_233
*824 FILLER_0_26_245
*825 FILLER_0_26_251
*826 FILLER_0_26_253
*827 FILLER_0_26_265
*828 FILLER_0_26_27
*829 FILLER_0_26_277
*830 FILLER_0_26_289
*831 FILLER_0_26_29
*832 FILLER_0_26_3
*833 FILLER_0_26_301
*834 FILLER_0_26_307
*835 FILLER_0_26_309
*836 FILLER_0_26_321
*837 FILLER_0_26_333
*838 FILLER_0_26_345
*839 FILLER_0_26_357
*840 FILLER_0_26_363
*841 FILLER_0_26_365
*842 FILLER_0_26_377
*843 FILLER_0_26_389
*844 FILLER_0_26_401
*845 FILLER_0_26_41
*846 FILLER_0_26_53
*847 FILLER_0_26_65
*848 FILLER_0_26_77
*849 FILLER_0_26_83
*850 FILLER_0_26_85
*851 FILLER_0_26_97
*852 FILLER_0_27_105
*853 FILLER_0_27_111
*854 FILLER_0_27_113
*855 FILLER_0_27_125
*856 FILLER_0_27_137
*857 FILLER_0_27_14
*858 FILLER_0_27_149
*859 FILLER_0_27_161
*860 FILLER_0_27_167
*861 FILLER_0_27_169
*862 FILLER_0_27_18
*863 FILLER_0_27_181
*864 FILLER_0_27_193
*865 FILLER_0_27_205
*866 FILLER_0_27_217
*867 FILLER_0_27_22
*868 FILLER_0_27_223
*869 FILLER_0_27_225
*870 FILLER_0_27_237
*871 FILLER_0_27_249
*872 FILLER_0_27_261
*873 FILLER_0_27_273
*874 FILLER_0_27_279
*875 FILLER_0_27_281
*876 FILLER_0_27_293
*877 FILLER_0_27_3
*878 FILLER_0_27_305
*879 FILLER_0_27_317
*880 FILLER_0_27_329
*881 FILLER_0_27_335
*882 FILLER_0_27_337
*883 FILLER_0_27_34
*884 FILLER_0_27_349
*885 FILLER_0_27_361
*886 FILLER_0_27_373
*887 FILLER_0_27_385
*888 FILLER_0_27_391
*889 FILLER_0_27_393
*890 FILLER_0_27_405
*891 FILLER_0_27_46
*892 FILLER_0_27_54
*893 FILLER_0_27_57
*894 FILLER_0_27_69
*895 FILLER_0_27_81
*896 FILLER_0_27_93
*897 FILLER_0_28_109
*898 FILLER_0_28_121
*899 FILLER_0_28_133
*900 FILLER_0_28_139
*901 FILLER_0_28_141
*902 FILLER_0_28_15
*903 FILLER_0_28_153
*904 FILLER_0_28_165
*905 FILLER_0_28_177
*906 FILLER_0_28_189
*907 FILLER_0_28_195
*908 FILLER_0_28_197
*909 FILLER_0_28_209
*910 FILLER_0_28_221
*911 FILLER_0_28_233
*912 FILLER_0_28_245
*913 FILLER_0_28_251
*914 FILLER_0_28_253
*915 FILLER_0_28_265
*916 FILLER_0_28_27
*917 FILLER_0_28_277
*918 FILLER_0_28_289
*919 FILLER_0_28_29
*920 FILLER_0_28_3
*921 FILLER_0_28_301
*922 FILLER_0_28_307
*923 FILLER_0_28_309
*924 FILLER_0_28_321
*925 FILLER_0_28_333
*926 FILLER_0_28_345
*927 FILLER_0_28_357
*928 FILLER_0_28_363
*929 FILLER_0_28_365
*930 FILLER_0_28_377
*931 FILLER_0_28_389
*932 FILLER_0_28_401
*933 FILLER_0_28_41
*934 FILLER_0_28_53
*935 FILLER_0_28_65
*936 FILLER_0_28_77
*937 FILLER_0_28_83
*938 FILLER_0_28_85
*939 FILLER_0_28_97
*940 FILLER_0_29_105
*941 FILLER_0_29_111
*942 FILLER_0_29_113
*943 FILLER_0_29_125
*944 FILLER_0_29_137
*945 FILLER_0_29_149
*946 FILLER_0_29_15
*947 FILLER_0_29_161
*948 FILLER_0_29_167
*949 FILLER_0_29_169
*950 FILLER_0_29_181
*951 FILLER_0_29_193
*952 FILLER_0_29_205
*953 FILLER_0_29_217
*954 FILLER_0_29_223
*955 FILLER_0_29_225
*956 FILLER_0_29_237
*957 FILLER_0_29_249
*958 FILLER_0_29_261
*959 FILLER_0_29_27
*960 FILLER_0_29_273
*961 FILLER_0_29_279
*962 FILLER_0_29_281
*963 FILLER_0_29_293
*964 FILLER_0_29_3
*965 FILLER_0_29_305
*966 FILLER_0_29_317
*967 FILLER_0_29_329
*968 FILLER_0_29_335
*969 FILLER_0_29_337
*970 FILLER_0_29_349
*971 FILLER_0_29_361
*972 FILLER_0_29_373
*973 FILLER_0_29_385
*974 FILLER_0_29_39
*975 FILLER_0_29_391
*976 FILLER_0_29_393
*977 FILLER_0_29_405
*978 FILLER_0_29_51
*979 FILLER_0_29_55
*980 FILLER_0_29_57
*981 FILLER_0_29_69
*982 FILLER_0_29_81
*983 FILLER_0_29_93
*984 FILLER_0_2_109
*985 FILLER_0_2_121
*986 FILLER_0_2_133
*987 FILLER_0_2_139
*988 FILLER_0_2_141
*989 FILLER_0_2_15
*990 FILLER_0_2_153
*991 FILLER_0_2_165
*992 FILLER_0_2_177
*993 FILLER_0_2_189
*994 FILLER_0_2_195
*995 FILLER_0_2_197
*996 FILLER_0_2_209
*997 FILLER_0_2_221
*998 FILLER_0_2_233
*999 FILLER_0_2_245
*1000 FILLER_0_2_251
*1001 FILLER_0_2_253
*1002 FILLER_0_2_265
*1003 FILLER_0_2_27
*1004 FILLER_0_2_277
*1005 FILLER_0_2_289
*1006 FILLER_0_2_29
*1007 FILLER_0_2_3
*1008 FILLER_0_2_301
*1009 FILLER_0_2_307
*1010 FILLER_0_2_309
*1011 FILLER_0_2_321
*1012 FILLER_0_2_333
*1013 FILLER_0_2_345
*1014 FILLER_0_2_357
*1015 FILLER_0_2_363
*1016 FILLER_0_2_365
*1017 FILLER_0_2_377
*1018 FILLER_0_2_389
*1019 FILLER_0_2_401
*1020 FILLER_0_2_41
*1021 FILLER_0_2_53
*1022 FILLER_0_2_65
*1023 FILLER_0_2_77
*1024 FILLER_0_2_83
*1025 FILLER_0_2_85
*1026 FILLER_0_2_97
*1027 FILLER_0_30_109
*1028 FILLER_0_30_121
*1029 FILLER_0_30_133
*1030 FILLER_0_30_139
*1031 FILLER_0_30_141
*1032 FILLER_0_30_15
*1033 FILLER_0_30_153
*1034 FILLER_0_30_165
*1035 FILLER_0_30_177
*1036 FILLER_0_30_189
*1037 FILLER_0_30_195
*1038 FILLER_0_30_197
*1039 FILLER_0_30_209
*1040 FILLER_0_30_221
*1041 FILLER_0_30_233
*1042 FILLER_0_30_245
*1043 FILLER_0_30_251
*1044 FILLER_0_30_253
*1045 FILLER_0_30_265
*1046 FILLER_0_30_27
*1047 FILLER_0_30_277
*1048 FILLER_0_30_289
*1049 FILLER_0_30_29
*1050 FILLER_0_30_3
*1051 FILLER_0_30_301
*1052 FILLER_0_30_307
*1053 FILLER_0_30_309
*1054 FILLER_0_30_321
*1055 FILLER_0_30_333
*1056 FILLER_0_30_345
*1057 FILLER_0_30_357
*1058 FILLER_0_30_363
*1059 FILLER_0_30_365
*1060 FILLER_0_30_377
*1061 FILLER_0_30_389
*1062 FILLER_0_30_401
*1063 FILLER_0_30_41
*1064 FILLER_0_30_53
*1065 FILLER_0_30_65
*1066 FILLER_0_30_77
*1067 FILLER_0_30_83
*1068 FILLER_0_30_85
*1069 FILLER_0_30_97
*1070 FILLER_0_31_105
*1071 FILLER_0_31_111
*1072 FILLER_0_31_113
*1073 FILLER_0_31_125
*1074 FILLER_0_31_137
*1075 FILLER_0_31_149
*1076 FILLER_0_31_15
*1077 FILLER_0_31_161
*1078 FILLER_0_31_167
*1079 FILLER_0_31_169
*1080 FILLER_0_31_181
*1081 FILLER_0_31_193
*1082 FILLER_0_31_205
*1083 FILLER_0_31_217
*1084 FILLER_0_31_223
*1085 FILLER_0_31_225
*1086 FILLER_0_31_237
*1087 FILLER_0_31_249
*1088 FILLER_0_31_261
*1089 FILLER_0_31_27
*1090 FILLER_0_31_273
*1091 FILLER_0_31_279
*1092 FILLER_0_31_281
*1093 FILLER_0_31_293
*1094 FILLER_0_31_3
*1095 FILLER_0_31_305
*1096 FILLER_0_31_317
*1097 FILLER_0_31_329
*1098 FILLER_0_31_335
*1099 FILLER_0_31_337
*1100 FILLER_0_31_349
*1101 FILLER_0_31_361
*1102 FILLER_0_31_373
*1103 FILLER_0_31_385
*1104 FILLER_0_31_39
*1105 FILLER_0_31_391
*1106 FILLER_0_31_393
*1107 FILLER_0_31_405
*1108 FILLER_0_31_51
*1109 FILLER_0_31_55
*1110 FILLER_0_31_57
*1111 FILLER_0_31_69
*1112 FILLER_0_31_81
*1113 FILLER_0_31_93
*1114 FILLER_0_32_109
*1115 FILLER_0_32_121
*1116 FILLER_0_32_133
*1117 FILLER_0_32_139
*1118 FILLER_0_32_141
*1119 FILLER_0_32_15
*1120 FILLER_0_32_153
*1121 FILLER_0_32_165
*1122 FILLER_0_32_177
*1123 FILLER_0_32_189
*1124 FILLER_0_32_195
*1125 FILLER_0_32_197
*1126 FILLER_0_32_209
*1127 FILLER_0_32_221
*1128 FILLER_0_32_233
*1129 FILLER_0_32_245
*1130 FILLER_0_32_251
*1131 FILLER_0_32_253
*1132 FILLER_0_32_265
*1133 FILLER_0_32_27
*1134 FILLER_0_32_277
*1135 FILLER_0_32_289
*1136 FILLER_0_32_29
*1137 FILLER_0_32_3
*1138 FILLER_0_32_301
*1139 FILLER_0_32_307
*1140 FILLER_0_32_309
*1141 FILLER_0_32_321
*1142 FILLER_0_32_333
*1143 FILLER_0_32_345
*1144 FILLER_0_32_357
*1145 FILLER_0_32_363
*1146 FILLER_0_32_365
*1147 FILLER_0_32_377
*1148 FILLER_0_32_389
*1149 FILLER_0_32_401
*1150 FILLER_0_32_41
*1151 FILLER_0_32_53
*1152 FILLER_0_32_65
*1153 FILLER_0_32_77
*1154 FILLER_0_32_83
*1155 FILLER_0_32_85
*1156 FILLER_0_32_97
*1157 FILLER_0_33_105
*1158 FILLER_0_33_111
*1159 FILLER_0_33_113
*1160 FILLER_0_33_125
*1161 FILLER_0_33_137
*1162 FILLER_0_33_149
*1163 FILLER_0_33_15
*1164 FILLER_0_33_161
*1165 FILLER_0_33_167
*1166 FILLER_0_33_169
*1167 FILLER_0_33_181
*1168 FILLER_0_33_193
*1169 FILLER_0_33_205
*1170 FILLER_0_33_217
*1171 FILLER_0_33_223
*1172 FILLER_0_33_225
*1173 FILLER_0_33_237
*1174 FILLER_0_33_249
*1175 FILLER_0_33_261
*1176 FILLER_0_33_27
*1177 FILLER_0_33_273
*1178 FILLER_0_33_279
*1179 FILLER_0_33_281
*1180 FILLER_0_33_293
*1181 FILLER_0_33_3
*1182 FILLER_0_33_305
*1183 FILLER_0_33_317
*1184 FILLER_0_33_329
*1185 FILLER_0_33_335
*1186 FILLER_0_33_337
*1187 FILLER_0_33_349
*1188 FILLER_0_33_361
*1189 FILLER_0_33_373
*1190 FILLER_0_33_385
*1191 FILLER_0_33_39
*1192 FILLER_0_33_391
*1193 FILLER_0_33_393
*1194 FILLER_0_33_405
*1195 FILLER_0_33_51
*1196 FILLER_0_33_55
*1197 FILLER_0_33_57
*1198 FILLER_0_33_69
*1199 FILLER_0_33_81
*1200 FILLER_0_33_93
*1201 FILLER_0_34_109
*1202 FILLER_0_34_121
*1203 FILLER_0_34_133
*1204 FILLER_0_34_139
*1205 FILLER_0_34_141
*1206 FILLER_0_34_15
*1207 FILLER_0_34_153
*1208 FILLER_0_34_165
*1209 FILLER_0_34_177
*1210 FILLER_0_34_189
*1211 FILLER_0_34_195
*1212 FILLER_0_34_197
*1213 FILLER_0_34_209
*1214 FILLER_0_34_221
*1215 FILLER_0_34_233
*1216 FILLER_0_34_245
*1217 FILLER_0_34_251
*1218 FILLER_0_34_253
*1219 FILLER_0_34_265
*1220 FILLER_0_34_27
*1221 FILLER_0_34_277
*1222 FILLER_0_34_289
*1223 FILLER_0_34_29
*1224 FILLER_0_34_3
*1225 FILLER_0_34_301
*1226 FILLER_0_34_307
*1227 FILLER_0_34_309
*1228 FILLER_0_34_321
*1229 FILLER_0_34_333
*1230 FILLER_0_34_345
*1231 FILLER_0_34_357
*1232 FILLER_0_34_363
*1233 FILLER_0_34_365
*1234 FILLER_0_34_377
*1235 FILLER_0_34_389
*1236 FILLER_0_34_401
*1237 FILLER_0_34_41
*1238 FILLER_0_34_53
*1239 FILLER_0_34_65
*1240 FILLER_0_34_77
*1241 FILLER_0_34_83
*1242 FILLER_0_34_85
*1243 FILLER_0_34_97
*1244 FILLER_0_35_105
*1245 FILLER_0_35_111
*1246 FILLER_0_35_113
*1247 FILLER_0_35_125
*1248 FILLER_0_35_137
*1249 FILLER_0_35_149
*1250 FILLER_0_35_15
*1251 FILLER_0_35_161
*1252 FILLER_0_35_167
*1253 FILLER_0_35_169
*1254 FILLER_0_35_181
*1255 FILLER_0_35_193
*1256 FILLER_0_35_205
*1257 FILLER_0_35_217
*1258 FILLER_0_35_223
*1259 FILLER_0_35_225
*1260 FILLER_0_35_237
*1261 FILLER_0_35_249
*1262 FILLER_0_35_261
*1263 FILLER_0_35_27
*1264 FILLER_0_35_273
*1265 FILLER_0_35_279
*1266 FILLER_0_35_281
*1267 FILLER_0_35_293
*1268 FILLER_0_35_3
*1269 FILLER_0_35_305
*1270 FILLER_0_35_317
*1271 FILLER_0_35_329
*1272 FILLER_0_35_335
*1273 FILLER_0_35_337
*1274 FILLER_0_35_349
*1275 FILLER_0_35_361
*1276 FILLER_0_35_373
*1277 FILLER_0_35_385
*1278 FILLER_0_35_39
*1279 FILLER_0_35_391
*1280 FILLER_0_35_393
*1281 FILLER_0_35_405
*1282 FILLER_0_35_51
*1283 FILLER_0_35_55
*1284 FILLER_0_35_57
*1285 FILLER_0_35_69
*1286 FILLER_0_35_81
*1287 FILLER_0_35_93
*1288 FILLER_0_36_109
*1289 FILLER_0_36_121
*1290 FILLER_0_36_133
*1291 FILLER_0_36_139
*1292 FILLER_0_36_141
*1293 FILLER_0_36_15
*1294 FILLER_0_36_153
*1295 FILLER_0_36_165
*1296 FILLER_0_36_177
*1297 FILLER_0_36_189
*1298 FILLER_0_36_195
*1299 FILLER_0_36_197
*1300 FILLER_0_36_209
*1301 FILLER_0_36_221
*1302 FILLER_0_36_233
*1303 FILLER_0_36_245
*1304 FILLER_0_36_251
*1305 FILLER_0_36_253
*1306 FILLER_0_36_265
*1307 FILLER_0_36_27
*1308 FILLER_0_36_277
*1309 FILLER_0_36_289
*1310 FILLER_0_36_29
*1311 FILLER_0_36_3
*1312 FILLER_0_36_301
*1313 FILLER_0_36_307
*1314 FILLER_0_36_309
*1315 FILLER_0_36_321
*1316 FILLER_0_36_333
*1317 FILLER_0_36_345
*1318 FILLER_0_36_357
*1319 FILLER_0_36_363
*1320 FILLER_0_36_365
*1321 FILLER_0_36_377
*1322 FILLER_0_36_389
*1323 FILLER_0_36_401
*1324 FILLER_0_36_41
*1325 FILLER_0_36_53
*1326 FILLER_0_36_65
*1327 FILLER_0_36_77
*1328 FILLER_0_36_83
*1329 FILLER_0_36_85
*1330 FILLER_0_36_97
*1331 FILLER_0_37_105
*1332 FILLER_0_37_111
*1333 FILLER_0_37_113
*1334 FILLER_0_37_125
*1335 FILLER_0_37_137
*1336 FILLER_0_37_149
*1337 FILLER_0_37_15
*1338 FILLER_0_37_161
*1339 FILLER_0_37_167
*1340 FILLER_0_37_169
*1341 FILLER_0_37_181
*1342 FILLER_0_37_193
*1343 FILLER_0_37_205
*1344 FILLER_0_37_217
*1345 FILLER_0_37_223
*1346 FILLER_0_37_225
*1347 FILLER_0_37_237
*1348 FILLER_0_37_249
*1349 FILLER_0_37_261
*1350 FILLER_0_37_27
*1351 FILLER_0_37_273
*1352 FILLER_0_37_279
*1353 FILLER_0_37_281
*1354 FILLER_0_37_293
*1355 FILLER_0_37_3
*1356 FILLER_0_37_305
*1357 FILLER_0_37_317
*1358 FILLER_0_37_329
*1359 FILLER_0_37_335
*1360 FILLER_0_37_337
*1361 FILLER_0_37_349
*1362 FILLER_0_37_361
*1363 FILLER_0_37_373
*1364 FILLER_0_37_385
*1365 FILLER_0_37_39
*1366 FILLER_0_37_391
*1367 FILLER_0_37_393
*1368 FILLER_0_37_405
*1369 FILLER_0_37_51
*1370 FILLER_0_37_55
*1371 FILLER_0_37_57
*1372 FILLER_0_37_69
*1373 FILLER_0_37_81
*1374 FILLER_0_37_93
*1375 FILLER_0_38_109
*1376 FILLER_0_38_121
*1377 FILLER_0_38_133
*1378 FILLER_0_38_139
*1379 FILLER_0_38_141
*1380 FILLER_0_38_15
*1381 FILLER_0_38_153
*1382 FILLER_0_38_165
*1383 FILLER_0_38_177
*1384 FILLER_0_38_189
*1385 FILLER_0_38_195
*1386 FILLER_0_38_197
*1387 FILLER_0_38_209
*1388 FILLER_0_38_221
*1389 FILLER_0_38_233
*1390 FILLER_0_38_245
*1391 FILLER_0_38_251
*1392 FILLER_0_38_253
*1393 FILLER_0_38_265
*1394 FILLER_0_38_27
*1395 FILLER_0_38_277
*1396 FILLER_0_38_289
*1397 FILLER_0_38_29
*1398 FILLER_0_38_3
*1399 FILLER_0_38_301
*1400 FILLER_0_38_307
*1401 FILLER_0_38_309
*1402 FILLER_0_38_321
*1403 FILLER_0_38_333
*1404 FILLER_0_38_345
*1405 FILLER_0_38_357
*1406 FILLER_0_38_363
*1407 FILLER_0_38_365
*1408 FILLER_0_38_377
*1409 FILLER_0_38_389
*1410 FILLER_0_38_401
*1411 FILLER_0_38_41
*1412 FILLER_0_38_53
*1413 FILLER_0_38_65
*1414 FILLER_0_38_77
*1415 FILLER_0_38_83
*1416 FILLER_0_38_85
*1417 FILLER_0_38_97
*1418 FILLER_0_39_105
*1419 FILLER_0_39_111
*1420 FILLER_0_39_113
*1421 FILLER_0_39_125
*1422 FILLER_0_39_137
*1423 FILLER_0_39_149
*1424 FILLER_0_39_15
*1425 FILLER_0_39_161
*1426 FILLER_0_39_167
*1427 FILLER_0_39_169
*1428 FILLER_0_39_181
*1429 FILLER_0_39_193
*1430 FILLER_0_39_205
*1431 FILLER_0_39_217
*1432 FILLER_0_39_223
*1433 FILLER_0_39_225
*1434 FILLER_0_39_237
*1435 FILLER_0_39_249