*SPEF "ieee 1481-1999"
*DESIGN "arbiter_proj"
*DATE "11:11:11 Fri 11 11, 1111"
*VENDOR "OpenRCX"
*PROGRAM "Parallel Extraction"
*VERSION "1.0"
*DESIGN_FLOW "NAME_SCOPE LOCAL" "PIN_CAP NONE"
*DIVIDER /
*DELIMITER :
*BUS_DELIMITER []
*T_UNIT 1 NS
*C_UNIT 1 PF
*R_UNIT 1 OHM
*L_UNIT 1 HENRY

*NAME_MAP
*1 io_in[0]
*2 io_in[1]
*3 io_in[2]
*4 net7
*5 net8
*6 net9
*7 io_out[0]
*8 io_out[1]
*9 io_out[2]
*12 arbiter\.g0
*13 arbiter\.g1
*14 arbiter\.net1
*15 arbiter\.net2
*16 arbiter\.net3
*17 arbiter\.net4
*18 arbiter\.net5
*19 arbiter\.net6
*20 arbiter\.net7
*21 arbiter\.net8
*22 arbiter\.net9
*23 arbiter\.rc
*24 net1
*25 net2
*26 net3
*27 net4
*28 net5
*29 net6
*30 ANTENNA_arbiter\.x10_B
*31 ANTENNA_arbiter\.x11_B
*32 ANTENNA_arbiter\.x2_A
*33 ANTENNA_arbiter\.x2_B
*34 ANTENNA_arbiter\.x5_A
*35 ANTENNA_arbiter\.x6_A
*36 ANTENNA_arbiter\.x6_B
*37 ANTENNA_output4_A
*38 FILLER_0_0_109
*39 FILLER_0_0_113
*40 FILLER_0_0_125
*41 FILLER_0_0_137
*42 FILLER_0_0_141
*43 FILLER_0_0_15
*44 FILLER_0_0_153
*45 FILLER_0_0_165
*46 FILLER_0_0_169
*47 FILLER_0_0_181
*48 FILLER_0_0_193
*49 FILLER_0_0_197
*50 FILLER_0_0_209
*51 FILLER_0_0_221
*52 FILLER_0_0_225
*53 FILLER_0_0_237
*54 FILLER_0_0_249
*55 FILLER_0_0_253
*56 FILLER_0_0_265
*57 FILLER_0_0_27
*58 FILLER_0_0_277
*59 FILLER_0_0_281
*60 FILLER_0_0_29
*61 FILLER_0_0_293
*62 FILLER_0_0_3
*63 FILLER_0_0_305
*64 FILLER_0_0_309
*65 FILLER_0_0_321
*66 FILLER_0_0_333
*67 FILLER_0_0_337
*68 FILLER_0_0_349
*69 FILLER_0_0_361
*70 FILLER_0_0_365
*71 FILLER_0_0_377
*72 FILLER_0_0_389
*73 FILLER_0_0_393
*74 FILLER_0_0_405
*75 FILLER_0_0_41
*76 FILLER_0_0_53
*77 FILLER_0_0_57
*78 FILLER_0_0_69
*79 FILLER_0_0_81
*80 FILLER_0_0_85
*81 FILLER_0_0_97
*82 FILLER_0_10_109
*83 FILLER_0_10_121
*84 FILLER_0_10_133
*85 FILLER_0_10_139
*86 FILLER_0_10_141
*87 FILLER_0_10_15
*88 FILLER_0_10_153
*89 FILLER_0_10_165
*90 FILLER_0_10_177
*91 FILLER_0_10_189
*92 FILLER_0_10_195
*93 FILLER_0_10_197
*94 FILLER_0_10_209
*95 FILLER_0_10_221
*96 FILLER_0_10_233
*97 FILLER_0_10_245
*98 FILLER_0_10_251
*99 FILLER_0_10_253
*100 FILLER_0_10_265
*101 FILLER_0_10_27
*102 FILLER_0_10_277
*103 FILLER_0_10_289
*104 FILLER_0_10_29
*105 FILLER_0_10_3
*106 FILLER_0_10_301
*107 FILLER_0_10_307
*108 FILLER_0_10_309
*109 FILLER_0_10_321
*110 FILLER_0_10_333
*111 FILLER_0_10_345
*112 FILLER_0_10_357
*113 FILLER_0_10_363
*114 FILLER_0_10_365
*115 FILLER_0_10_377
*116 FILLER_0_10_389
*117 FILLER_0_10_401
*118 FILLER_0_10_41
*119 FILLER_0_10_53
*120 FILLER_0_10_65
*121 FILLER_0_10_77
*122 FILLER_0_10_83
*123 FILLER_0_10_85
*124 FILLER_0_10_97
*125 FILLER_0_11_105
*126 FILLER_0_11_111
*127 FILLER_0_11_113
*128 FILLER_0_11_125
*129 FILLER_0_11_137
*130 FILLER_0_11_149
*131 FILLER_0_11_15
*132 FILLER_0_11_161
*133 FILLER_0_11_167
*134 FILLER_0_11_169
*135 FILLER_0_11_181
*136 FILLER_0_11_193
*137 FILLER_0_11_205
*138 FILLER_0_11_217
*139 FILLER_0_11_223
*140 FILLER_0_11_225
*141 FILLER_0_11_237
*142 FILLER_0_11_249
*143 FILLER_0_11_261
*144 FILLER_0_11_27
*145 FILLER_0_11_273
*146 FILLER_0_11_279
*147 FILLER_0_11_281
*148 FILLER_0_11_293
*149 FILLER_0_11_3
*150 FILLER_0_11_305
*151 FILLER_0_11_317
*152 FILLER_0_11_329
*153 FILLER_0_11_335
*154 FILLER_0_11_337
*155 FILLER_0_11_349
*156 FILLER_0_11_361
*157 FILLER_0_11_373
*158 FILLER_0_11_385
*159 FILLER_0_11_39
*160 FILLER_0_11_391
*161 FILLER_0_11_393
*162 FILLER_0_11_405
*163 FILLER_0_11_51
*164 FILLER_0_11_55
*165 FILLER_0_11_57
*166 FILLER_0_11_69
*167 FILLER_0_11_81
*168 FILLER_0_11_93
*169 FILLER_0_12_109
*170 FILLER_0_12_121
*171 FILLER_0_12_133
*172 FILLER_0_12_139
*173 FILLER_0_12_141
*174 FILLER_0_12_15
*175 FILLER_0_12_153
*176 FILLER_0_12_165
*177 FILLER_0_12_177
*178 FILLER_0_12_189
*179 FILLER_0_12_195
*180 FILLER_0_12_197
*181 FILLER_0_12_209
*182 FILLER_0_12_221
*183 FILLER_0_12_233
*184 FILLER_0_12_245
*185 FILLER_0_12_251
*186 FILLER_0_12_253
*187 FILLER_0_12_265
*188 FILLER_0_12_27
*189 FILLER_0_12_277
*190 FILLER_0_12_289
*191 FILLER_0_12_29
*192 FILLER_0_12_3
*193 FILLER_0_12_301
*194 FILLER_0_12_307
*195 FILLER_0_12_309
*196 FILLER_0_12_321
*197 FILLER_0_12_333
*198 FILLER_0_12_345
*199 FILLER_0_12_357
*200 FILLER_0_12_363
*201 FILLER_0_12_365
*202 FILLER_0_12_377
*203 FILLER_0_12_389
*204 FILLER_0_12_401
*205 FILLER_0_12_41
*206 FILLER_0_12_53
*207 FILLER_0_12_65
*208 FILLER_0_12_77
*209 FILLER_0_12_83
*210 FILLER_0_12_85
*211 FILLER_0_12_97
*212 FILLER_0_13_105
*213 FILLER_0_13_111
*214 FILLER_0_13_113
*215 FILLER_0_13_125
*216 FILLER_0_13_137
*217 FILLER_0_13_149
*218 FILLER_0_13_15
*219 FILLER_0_13_161
*220 FILLER_0_13_167
*221 FILLER_0_13_169
*222 FILLER_0_13_181
*223 FILLER_0_13_193
*224 FILLER_0_13_205
*225 FILLER_0_13_217
*226 FILLER_0_13_223
*227 FILLER_0_13_225
*228 FILLER_0_13_237
*229 FILLER_0_13_249
*230 FILLER_0_13_261
*231 FILLER_0_13_27
*232 FILLER_0_13_273
*233 FILLER_0_13_279
*234 FILLER_0_13_281
*235 FILLER_0_13_293
*236 FILLER_0_13_3
*237 FILLER_0_13_305
*238 FILLER_0_13_317
*239 FILLER_0_13_329
*240 FILLER_0_13_335
*241 FILLER_0_13_337
*242 FILLER_0_13_349
*243 FILLER_0_13_361
*244 FILLER_0_13_373
*245 FILLER_0_13_385
*246 FILLER_0_13_39
*247 FILLER_0_13_391
*248 FILLER_0_13_393
*249 FILLER_0_13_405
*250 FILLER_0_13_51
*251 FILLER_0_13_55
*252 FILLER_0_13_57
*253 FILLER_0_13_69
*254 FILLER_0_13_81
*255 FILLER_0_13_93
*256 FILLER_0_14_109
*257 FILLER_0_14_121
*258 FILLER_0_14_133
*259 FILLER_0_14_139
*260 FILLER_0_14_141
*261 FILLER_0_14_15
*262 FILLER_0_14_153
*263 FILLER_0_14_165
*264 FILLER_0_14_177
*265 FILLER_0_14_189
*266 FILLER_0_14_195
*267 FILLER_0_14_197
*268 FILLER_0_14_209
*269 FILLER_0_14_221
*270 FILLER_0_14_233
*271 FILLER_0_14_245
*272 FILLER_0_14_251
*273 FILLER_0_14_253
*274 FILLER_0_14_265
*275 FILLER_0_14_27
*276 FILLER_0_14_277
*277 FILLER_0_14_289
*278 FILLER_0_14_29
*279 FILLER_0_14_3
*280 FILLER_0_14_301
*281 FILLER_0_14_307
*282 FILLER_0_14_309
*283 FILLER_0_14_321
*284 FILLER_0_14_333
*285 FILLER_0_14_345
*286 FILLER_0_14_357
*287 FILLER_0_14_363
*288 FILLER_0_14_365
*289 FILLER_0_14_377
*290 FILLER_0_14_389
*291 FILLER_0_14_401
*292 FILLER_0_14_41
*293 FILLER_0_14_53
*294 FILLER_0_14_65
*295 FILLER_0_14_77
*296 FILLER_0_14_83
*297 FILLER_0_14_85
*298 FILLER_0_14_97
*299 FILLER_0_15_105
*300 FILLER_0_15_111
*301 FILLER_0_15_113
*302 FILLER_0_15_125
*303 FILLER_0_15_137
*304 FILLER_0_15_149
*305 FILLER_0_15_15
*306 FILLER_0_15_161
*307 FILLER_0_15_167
*308 FILLER_0_15_169
*309 FILLER_0_15_181
*310 FILLER_0_15_193
*311 FILLER_0_15_205
*312 FILLER_0_15_217
*313 FILLER_0_15_223
*314 FILLER_0_15_225
*315 FILLER_0_15_237
*316 FILLER_0_15_249
*317 FILLER_0_15_261
*318 FILLER_0_15_27
*319 FILLER_0_15_273
*320 FILLER_0_15_279
*321 FILLER_0_15_281
*322 FILLER_0_15_293
*323 FILLER_0_15_3
*324 FILLER_0_15_305
*325 FILLER_0_15_317
*326 FILLER_0_15_329
*327 FILLER_0_15_335
*328 FILLER_0_15_337
*329 FILLER_0_15_349
*330 FILLER_0_15_361
*331 FILLER_0_15_373
*332 FILLER_0_15_385
*333 FILLER_0_15_39
*334 FILLER_0_15_391
*335 FILLER_0_15_393
*336 FILLER_0_15_401
*337 FILLER_0_15_51
*338 FILLER_0_15_55
*339 FILLER_0_15_57
*340 FILLER_0_15_69
*341 FILLER_0_15_81
*342 FILLER_0_15_93
*343 FILLER_0_16_109
*344 FILLER_0_16_121
*345 FILLER_0_16_133
*346 FILLER_0_16_139
*347 FILLER_0_16_141
*348 FILLER_0_16_15
*349 FILLER_0_16_153
*350 FILLER_0_16_165
*351 FILLER_0_16_177
*352 FILLER_0_16_189
*353 FILLER_0_16_195
*354 FILLER_0_16_197
*355 FILLER_0_16_209
*356 FILLER_0_16_221
*357 FILLER_0_16_233
*358 FILLER_0_16_245
*359 FILLER_0_16_251
*360 FILLER_0_16_253
*361 FILLER_0_16_265
*362 FILLER_0_16_27
*363 FILLER_0_16_277
*364 FILLER_0_16_289
*365 FILLER_0_16_29
*366 FILLER_0_16_3
*367 FILLER_0_16_301
*368 FILLER_0_16_307
*369 FILLER_0_16_309
*370 FILLER_0_16_321
*371 FILLER_0_16_333
*372 FILLER_0_16_345
*373 FILLER_0_16_357
*374 FILLER_0_16_363
*375 FILLER_0_16_365
*376 FILLER_0_16_377
*377 FILLER_0_16_389
*378 FILLER_0_16_401
*379 FILLER_0_16_41
*380 FILLER_0_16_53
*381 FILLER_0_16_65
*382 FILLER_0_16_77
*383 FILLER_0_16_83
*384 FILLER_0_16_85
*385 FILLER_0_16_97
*386 FILLER_0_17_105
*387 FILLER_0_17_111
*388 FILLER_0_17_113
*389 FILLER_0_17_125
*390 FILLER_0_17_137
*391 FILLER_0_17_149
*392 FILLER_0_17_15
*393 FILLER_0_17_161
*394 FILLER_0_17_167
*395 FILLER_0_17_169
*396 FILLER_0_17_181
*397 FILLER_0_17_193
*398 FILLER_0_17_205
*399 FILLER_0_17_217
*400 FILLER_0_17_223
*401 FILLER_0_17_225
*402 FILLER_0_17_237
*403 FILLER_0_17_249
*404 FILLER_0_17_261
*405 FILLER_0_17_27
*406 FILLER_0_17_273
*407 FILLER_0_17_279
*408 FILLER_0_17_281
*409 FILLER_0_17_293
*410 FILLER_0_17_3
*411 FILLER_0_17_305
*412 FILLER_0_17_317
*413 FILLER_0_17_329
*414 FILLER_0_17_335
*415 FILLER_0_17_337
*416 FILLER_0_17_349
*417 FILLER_0_17_361
*418 FILLER_0_17_373
*419 FILLER_0_17_385
*420 FILLER_0_17_39
*421 FILLER_0_17_391
*422 FILLER_0_17_393
*423 FILLER_0_17_405
*424 FILLER_0_17_51
*425 FILLER_0_17_55
*426 FILLER_0_17_57
*427 FILLER_0_17_69
*428 FILLER_0_17_81
*429 FILLER_0_17_93
*430 FILLER_0_18_109
*431 FILLER_0_18_121
*432 FILLER_0_18_133
*433 FILLER_0_18_139
*434 FILLER_0_18_141
*435 FILLER_0_18_15
*436 FILLER_0_18_153
*437 FILLER_0_18_165
*438 FILLER_0_18_177
*439 FILLER_0_18_189
*440 FILLER_0_18_195
*441 FILLER_0_18_197
*442 FILLER_0_18_209
*443 FILLER_0_18_221
*444 FILLER_0_18_233
*445 FILLER_0_18_245
*446 FILLER_0_18_251
*447 FILLER_0_18_253
*448 FILLER_0_18_265
*449 FILLER_0_18_27
*450 FILLER_0_18_277
*451 FILLER_0_18_289
*452 FILLER_0_18_29
*453 FILLER_0_18_3
*454 FILLER_0_18_301
*455 FILLER_0_18_307
*456 FILLER_0_18_309
*457 FILLER_0_18_321
*458 FILLER_0_18_333
*459 FILLER_0_18_345
*460 FILLER_0_18_357
*461 FILLER_0_18_363
*462 FILLER_0_18_365
*463 FILLER_0_18_377
*464 FILLER_0_18_389
*465 FILLER_0_18_401
*466 FILLER_0_18_41
*467 FILLER_0_18_53
*468 FILLER_0_18_65
*469 FILLER_0_18_77
*470 FILLER_0_18_83
*471 FILLER_0_18_85
*472 FILLER_0_18_97
*473 FILLER_0_19_105
*474 FILLER_0_19_111
*475 FILLER_0_19_113
*476 FILLER_0_19_125
*477 FILLER_0_19_137
*478 FILLER_0_19_149
*479 FILLER_0_19_15
*480 FILLER_0_19_161
*481 FILLER_0_19_167
*482 FILLER_0_19_169
*483 FILLER_0_19_181
*484 FILLER_0_19_193
*485 FILLER_0_19_205
*486 FILLER_0_19_217
*487 FILLER_0_19_223
*488 FILLER_0_19_225
*489 FILLER_0_19_237
*490 FILLER_0_19_249
*491 FILLER_0_19_261
*492 FILLER_0_19_27
*493 FILLER_0_19_273
*494 FILLER_0_19_279
*495 FILLER_0_19_281
*496 FILLER_0_19_293
*497 FILLER_0_19_3
*498 FILLER_0_19_305
*499 FILLER_0_19_317
*500 FILLER_0_19_329
*501 FILLER_0_19_335
*502 FILLER_0_19_337
*503 FILLER_0_19_349
*504 FILLER_0_19_361
*505 FILLER_0_19_373
*506 FILLER_0_19_385
*507 FILLER_0_19_39
*508 FILLER_0_19_391
*509 FILLER_0_19_393
*510 FILLER_0_19_405
*511 FILLER_0_19_51
*512 FILLER_0_19_55
*513 FILLER_0_19_57
*514 FILLER_0_19_69
*515 FILLER_0_19_81
*516 FILLER_0_19_93
*517 FILLER_0_1_105
*518 FILLER_0_1_111
*519 FILLER_0_1_113
*520 FILLER_0_1_125
*521 FILLER_0_1_137
*522 FILLER_0_1_149
*523 FILLER_0_1_15
*524 FILLER_0_1_161
*525 FILLER_0_1_167
*526 FILLER_0_1_169
*527 FILLER_0_1_181
*528 FILLER_0_1_193
*529 FILLER_0_1_205
*530 FILLER_0_1_217
*531 FILLER_0_1_223
*532 FILLER_0_1_225
*533 FILLER_0_1_237
*534 FILLER_0_1_249
*535 FILLER_0_1_261
*536 FILLER_0_1_27
*537 FILLER_0_1_273
*538 FILLER_0_1_279
*539 FILLER_0_1_281
*540 FILLER_0_1_293
*541 FILLER_0_1_3
*542 FILLER_0_1_305
*543 FILLER_0_1_317
*544 FILLER_0_1_329
*545 FILLER_0_1_335
*546 FILLER_0_1_337
*547 FILLER_0_1_349
*548 FILLER_0_1_361
*549 FILLER_0_1_373
*550 FILLER_0_1_385
*551 FILLER_0_1_39
*552 FILLER_0_1_391
*553 FILLER_0_1_393
*554 FILLER_0_1_405
*555 FILLER_0_1_51
*556 FILLER_0_1_55
*557 FILLER_0_1_57
*558 FILLER_0_1_69
*559 FILLER_0_1_81
*560 FILLER_0_1_93
*561 FILLER_0_20_109
*562 FILLER_0_20_121
*563 FILLER_0_20_133
*564 FILLER_0_20_139
*565 FILLER_0_20_141
*566 FILLER_0_20_15
*567 FILLER_0_20_153
*568 FILLER_0_20_165
*569 FILLER_0_20_177
*570 FILLER_0_20_189
*571 FILLER_0_20_195
*572 FILLER_0_20_197
*573 FILLER_0_20_209
*574 FILLER_0_20_221
*575 FILLER_0_20_233
*576 FILLER_0_20_245
*577 FILLER_0_20_251
*578 FILLER_0_20_253
*579 FILLER_0_20_265
*580 FILLER_0_20_27
*581 FILLER_0_20_277
*582 FILLER_0_20_289
*583 FILLER_0_20_29
*584 FILLER_0_20_3
*585 FILLER_0_20_301
*586 FILLER_0_20_307
*587 FILLER_0_20_309
*588 FILLER_0_20_321
*589 FILLER_0_20_333
*590 FILLER_0_20_345
*591 FILLER_0_20_357
*592 FILLER_0_20_363
*593 FILLER_0_20_365
*594 FILLER_0_20_377
*595 FILLER_0_20_389
*596 FILLER_0_20_401
*597 FILLER_0_20_41
*598 FILLER_0_20_53
*599 FILLER_0_20_65
*600 FILLER_0_20_77
*601 FILLER_0_20_83
*602 FILLER_0_20_85
*603 FILLER_0_20_97
*604 FILLER_0_21_105
*605 FILLER_0_21_111
*606 FILLER_0_21_113
*607 FILLER_0_21_125
*608 FILLER_0_21_137
*609 FILLER_0_21_149
*610 FILLER_0_21_15
*611 FILLER_0_21_161
*612 FILLER_0_21_167
*613 FILLER_0_21_169
*614 FILLER_0_21_181
*615 FILLER_0_21_193
*616 FILLER_0_21_205
*617 FILLER_0_21_217
*618 FILLER_0_21_223
*619 FILLER_0_21_225
*620 FILLER_0_21_237
*621 FILLER_0_21_249
*622 FILLER_0_21_261
*623 FILLER_0_21_27
*624 FILLER_0_21_273
*625 FILLER_0_21_279
*626 FILLER_0_21_281
*627 FILLER_0_21_293
*628 FILLER_0_21_3
*629 FILLER_0_21_305
*630 FILLER_0_21_317
*631 FILLER_0_21_329
*632 FILLER_0_21_335
*633 FILLER_0_21_337
*634 FILLER_0_21_349
*635 FILLER_0_21_361
*636 FILLER_0_21_373
*637 FILLER_0_21_385
*638 FILLER_0_21_39
*639 FILLER_0_21_391
*640 FILLER_0_21_393
*641 FILLER_0_21_405
*642 FILLER_0_21_51
*643 FILLER_0_21_55
*644 FILLER_0_21_57
*645 FILLER_0_21_69
*646 FILLER_0_21_81
*647 FILLER_0_21_93
*648 FILLER_0_22_109
*649 FILLER_0_22_121
*650 FILLER_0_22_133
*651 FILLER_0_22_139
*652 FILLER_0_22_141
*653 FILLER_0_22_15
*654 FILLER_0_22_153
*655 FILLER_0_22_165
*656 FILLER_0_22_177
*657 FILLER_0_22_189
*658 FILLER_0_22_195
*659 FILLER_0_22_197
*660 FILLER_0_22_209
*661 FILLER_0_22_221
*662 FILLER_0_22_233
*663 FILLER_0_22_245
*664 FILLER_0_22_251
*665 FILLER_0_22_253
*666 FILLER_0_22_265
*667 FILLER_0_22_27
*668 FILLER_0_22_277
*669 FILLER_0_22_289
*670 FILLER_0_22_29
*671 FILLER_0_22_3
*672 FILLER_0_22_301
*673 FILLER_0_22_307
*674 FILLER_0_22_309
*675 FILLER_0_22_321
*676 FILLER_0_22_333
*677 FILLER_0_22_345
*678 FILLER_0_22_357
*679 FILLER_0_22_363
*680 FILLER_0_22_365
*681 FILLER_0_22_377
*682 FILLER_0_22_389
*683 FILLER_0_22_401
*684 FILLER_0_22_41
*685 FILLER_0_22_53
*686 FILLER_0_22_65
*687 FILLER_0_22_77
*688 FILLER_0_22_83
*689 FILLER_0_22_85
*690 FILLER_0_22_97
*691 FILLER_0_23_105
*692 FILLER_0_23_111
*693 FILLER_0_23_113
*694 FILLER_0_23_125
*695 FILLER_0_23_137
*696 FILLER_0_23_149
*697 FILLER_0_23_15
*698 FILLER_0_23_161
*699 FILLER_0_23_167
*700 FILLER_0_23_169
*701 FILLER_0_23_181
*702 FILLER_0_23_193
*703 FILLER_0_23_199
*704 FILLER_0_23_202
*705 FILLER_0_23_214
*706 FILLER_0_23_222
*707 FILLER_0_23_225
*708 FILLER_0_23_237
*709 FILLER_0_23_249
*710 FILLER_0_23_261
*711 FILLER_0_23_27
*712 FILLER_0_23_273
*713 FILLER_0_23_279
*714 FILLER_0_23_281
*715 FILLER_0_23_293
*716 FILLER_0_23_3
*717 FILLER_0_23_305
*718 FILLER_0_23_317
*719 FILLER_0_23_329
*720 FILLER_0_23_335
*721 FILLER_0_23_337
*722 FILLER_0_23_349
*723 FILLER_0_23_361
*724 FILLER_0_23_373
*725 FILLER_0_23_385
*726 FILLER_0_23_39
*727 FILLER_0_23_391
*728 FILLER_0_23_393
*729 FILLER_0_23_405
*730 FILLER_0_23_51
*731 FILLER_0_23_55
*732 FILLER_0_23_57
*733 FILLER_0_23_69
*734 FILLER_0_23_81
*735 FILLER_0_23_93
*736 FILLER_0_24_109
*737 FILLER_0_24_121
*738 FILLER_0_24_133
*739 FILLER_0_24_139
*740 FILLER_0_24_141
*741 FILLER_0_24_15
*742 FILLER_0_24_153
*743 FILLER_0_24_165
*744 FILLER_0_24_177
*745 FILLER_0_24_189
*746 FILLER_0_24_192
*747 FILLER_0_24_205
*748 FILLER_0_24_219
*749 FILLER_0_24_231
*750 FILLER_0_24_243
*751 FILLER_0_24_251
*752 FILLER_0_24_253
*753 FILLER_0_24_265
*754 FILLER_0_24_27
*755 FILLER_0_24_277
*756 FILLER_0_24_289
*757 FILLER_0_24_29
*758 FILLER_0_24_3
*759 FILLER_0_24_301
*760 FILLER_0_24_307
*761 FILLER_0_24_309
*762 FILLER_0_24_321
*763 FILLER_0_24_333
*764 FILLER_0_24_345
*765 FILLER_0_24_357
*766 FILLER_0_24_363
*767 FILLER_0_24_365
*768 FILLER_0_24_377
*769 FILLER_0_24_389
*770 FILLER_0_24_401
*771 FILLER_0_24_41
*772 FILLER_0_24_53
*773 FILLER_0_24_65
*774 FILLER_0_24_77
*775 FILLER_0_24_83
*776 FILLER_0_24_85
*777 FILLER_0_24_97
*778 FILLER_0_25_105
*779 FILLER_0_25_111
*780 FILLER_0_25_113
*781 FILLER_0_25_125
*782 FILLER_0_25_137
*783 FILLER_0_25_149
*784 FILLER_0_25_15
*785 FILLER_0_25_161
*786 FILLER_0_25_167
*787 FILLER_0_25_169
*788 FILLER_0_25_181
*789 FILLER_0_25_187
*790 FILLER_0_25_199
*791 FILLER_0_25_215
*792 FILLER_0_25_223
*793 FILLER_0_25_225
*794 FILLER_0_25_237
*795 FILLER_0_25_249
*796 FILLER_0_25_261
*797 FILLER_0_25_27
*798 FILLER_0_25_273
*799 FILLER_0_25_279
*800 FILLER_0_25_281
*801 FILLER_0_25_293
*802 FILLER_0_25_3
*803 FILLER_0_25_305
*804 FILLER_0_25_317
*805 FILLER_0_25_329
*806 FILLER_0_25_335
*807 FILLER_0_25_337
*808 FILLER_0_25_349
*809 FILLER_0_25_361
*810 FILLER_0_25_373
*811 FILLER_0_25_385
*812 FILLER_0_25_39
*813 FILLER_0_25_391
*814 FILLER_0_25_393
*815 FILLER_0_25_405
*816 FILLER_0_25_51
*817 FILLER_0_25_55
*818 FILLER_0_25_57
*819 FILLER_0_25_69
*820 FILLER_0_25_81
*821 FILLER_0_25_93
*822 FILLER_0_26_109
*823 FILLER_0_26_121
*824 FILLER_0_26_133
*825 FILLER_0_26_139
*826 FILLER_0_26_141
*827 FILLER_0_26_15
*828 FILLER_0_26_153
*829 FILLER_0_26_165
*830 FILLER_0_26_177
*831 FILLER_0_26_189
*832 FILLER_0_26_193
*833 FILLER_0_26_197
*834 FILLER_0_26_210
*835 FILLER_0_26_215
*836 FILLER_0_26_227
*837 FILLER_0_26_239
*838 FILLER_0_26_251
*839 FILLER_0_26_253
*840 FILLER_0_26_265
*841 FILLER_0_26_27
*842 FILLER_0_26_277
*843 FILLER_0_26_289
*844 FILLER_0_26_29
*845 FILLER_0_26_3
*846 FILLER_0_26_301
*847 FILLER_0_26_307
*848 FILLER_0_26_309
*849 FILLER_0_26_321
*850 FILLER_0_26_333
*851 FILLER_0_26_345
*852 FILLER_0_26_357
*853 FILLER_0_26_363
*854 FILLER_0_26_365
*855 FILLER_0_26_377
*856 FILLER_0_26_389
*857 FILLER_0_26_401
*858 FILLER_0_26_41
*859 FILLER_0_26_53
*860 FILLER_0_26_65
*861 FILLER_0_26_77
*862 FILLER_0_26_83
*863 FILLER_0_26_85
*864 FILLER_0_26_97
*865 FILLER_0_27_105
*866 FILLER_0_27_111
*867 FILLER_0_27_113
*868 FILLER_0_27_125
*869 FILLER_0_27_137
*870 FILLER_0_27_149
*871 FILLER_0_27_15
*872 FILLER_0_27_161
*873 FILLER_0_27_167
*874 FILLER_0_27_169
*875 FILLER_0_27_181
*876 FILLER_0_27_193
*877 FILLER_0_27_205
*878 FILLER_0_27_217
*879 FILLER_0_27_223
*880 FILLER_0_27_225
*881 FILLER_0_27_237
*882 FILLER_0_27_249
*883 FILLER_0_27_261
*884 FILLER_0_27_27
*885 FILLER_0_27_273
*886 FILLER_0_27_279
*887 FILLER_0_27_281
*888 FILLER_0_27_293
*889 FILLER_0_27_3
*890 FILLER_0_27_305
*891 FILLER_0_27_317
*892 FILLER_0_27_329
*893 FILLER_0_27_335
*894 FILLER_0_27_337
*895 FILLER_0_27_349
*896 FILLER_0_27_361
*897 FILLER_0_27_373
*898 FILLER_0_27_385
*899 FILLER_0_27_39
*900 FILLER_0_27_391
*901 FILLER_0_27_393
*902 FILLER_0_27_401
*903 FILLER_0_27_51
*904 FILLER_0_27_55
*905 FILLER_0_27_57
*906 FILLER_0_27_69
*907 FILLER_0_27_81
*908 FILLER_0_27_93
*909 FILLER_0_28_109
*910 FILLER_0_28_121
*911 FILLER_0_28_133
*912 FILLER_0_28_139
*913 FILLER_0_28_141
*914 FILLER_0_28_15
*915 FILLER_0_28_153
*916 FILLER_0_28_165
*917 FILLER_0_28_177
*918 FILLER_0_28_189
*919 FILLER_0_28_195
*920 FILLER_0_28_197
*921 FILLER_0_28_209
*922 FILLER_0_28_221
*923 FILLER_0_28_233
*924 FILLER_0_28_245
*925 FILLER_0_28_251
*926 FILLER_0_28_253
*927 FILLER_0_28_265
*928 FILLER_0_28_27
*929 FILLER_0_28_277
*930 FILLER_0_28_289
*931 FILLER_0_28_29
*932 FILLER_0_28_3
*933 FILLER_0_28_301
*934 FILLER_0_28_307
*935 FILLER_0_28_309
*936 FILLER_0_28_321
*937 FILLER_0_28_333
*938 FILLER_0_28_345
*939 FILLER_0_28_357
*940 FILLER_0_28_363
*941 FILLER_0_28_365
*942 FILLER_0_28_377
*943 FILLER_0_28_389
*944 FILLER_0_28_401
*945 FILLER_0_28_41
*946 FILLER_0_28_53
*947 FILLER_0_28_65
*948 FILLER_0_28_77
*949 FILLER_0_28_83
*950 FILLER_0_28_85
*951 FILLER_0_28_97
*952 FILLER_0_29_105
*953 FILLER_0_29_111
*954 FILLER_0_29_113
*955 FILLER_0_29_125
*956 FILLER_0_29_137
*957 FILLER_0_29_149
*958 FILLER_0_29_15
*959 FILLER_0_29_161
*960 FILLER_0_29_167
*961 FILLER_0_29_169
*962 FILLER_0_29_181
*963 FILLER_0_29_193
*964 FILLER_0_29_205
*965 FILLER_0_29_217
*966 FILLER_0_29_223
*967 FILLER_0_29_225
*968 FILLER_0_29_237
*969 FILLER_0_29_249
*970 FILLER_0_29_261
*971 FILLER_0_29_27
*972 FILLER_0_29_273
*973 FILLER_0_29_279
*974 FILLER_0_29_281
*975 FILLER_0_29_293
*976 FILLER_0_29_3
*977 FILLER_0_29_305
*978 FILLER_0_29_317
*979 FILLER_0_29_329
*980 FILLER_0_29_335
*981 FILLER_0_29_337
*982 FILLER_0_29_349
*983 FILLER_0_29_361
*984 FILLER_0_29_373
*985 FILLER_0_29_385
*986 FILLER_0_29_39
*987 FILLER_0_29_391
*988 FILLER_0_29_393
*989 FILLER_0_29_405
*990 FILLER_0_29_51
*991 FILLER_0_29_55
*992 FILLER_0_29_57
*993 FILLER_0_29_69
*994 FILLER_0_29_81
*995 FILLER_0_29_93
*996 FILLER_0_2_109
*997 FILLER_0_2_121
*998 FILLER_0_2_133
*999 FILLER_0_2_139
*1000 FILLER_0_2_141
*1001 FILLER_0_2_15
*1002 FILLER_0_2_153
*1003 FILLER_0_2_165
*1004 FILLER_0_2_177
*1005 FILLER_0_2_189
*1006 FILLER_0_2_195
*1007 FILLER_0_2_197
*1008 FILLER_0_2_209
*1009 FILLER_0_2_221
*1010 FILLER_0_2_233
*1011 FILLER_0_2_245
*1012 FILLER_0_2_251
*1013 FILLER_0_2_253
*1014 FILLER_0_2_265
*1015 FILLER_0_2_27
*1016 FILLER_0_2_277
*1017 FILLER_0_2_289
*1018 FILLER_0_2_29
*1019 FILLER_0_2_3
*1020 FILLER_0_2_301
*1021 FILLER_0_2_307
*1022 FILLER_0_2_309
*1023 FILLER_0_2_321
*1024 FILLER_0_2_333
*1025 FILLER_0_2_345
*1026 FILLER_0_2_357
*1027 FILLER_0_2_363
*1028 FILLER_0_2_365
*1029 FILLER_0_2_377
*1030 FILLER_0_2_389
*1031 FILLER_0_2_401
*1032 FILLER_0_2_41
*1033 FILLER_0_2_53
*1034 FILLER_0_2_65
*1035 FILLER_0_2_77
*1036 FILLER_0_2_83
*1037 FILLER_0_2_85
*1038 FILLER_0_2_97
*1039 FILLER_0_30_109
*1040 FILLER_0_30_121
*1041 FILLER_0_30_133
*1042 FILLER_0_30_139
*1043 FILLER_0_30_141
*1044 FILLER_0_30_15
*1045 FILLER_0_30_153
*1046 FILLER_0_30_165
*1047 FILLER_0_30_177
*1048 FILLER_0_30_189
*1049 FILLER_0_30_195
*1050 FILLER_0_30_197
*1051 FILLER_0_30_209
*1052 FILLER_0_30_221
*1053 FILLER_0_30_233
*1054 FILLER_0_30_245
*1055 FILLER_0_30_251
*1056 FILLER_0_30_253
*1057 FILLER_0_30_265
*1058 FILLER_0_30_27
*1059 FILLER_0_30_277
*1060 FILLER_0_30_289
*1061 FILLER_0_30_29
*1062 FILLER_0_30_3
*1063 FILLER_0_30_301
*1064 FILLER_0_30_307
*1065 FILLER_0_30_309
*1066 FILLER_0_30_321
*1067 FILLER_0_30_333
*1068 FILLER_0_30_345
*1069 FILLER_0_30_357
*1070 FILLER_0_30_363
*1071 FILLER_0_30_365
*1072 FILLER_0_30_377
*1073 FILLER_0_30_389
*1074 FILLER_0_30_401
*1075 FILLER_0_30_41
*1076 FILLER_0_30_53
*1077 FILLER_0_30_65
*1078 FILLER_0_30_77
*1079 FILLER_0_30_83
*1080 FILLER_0_30_85
*1081 FILLER_0_30_97
*1082 FILLER_0_31_105
*1083 FILLER_0_31_111
*1084 FILLER_0_31_113
*1085 FILLER_0_31_125
*1086 FILLER_0_31_137
*1087 FILLER_0_31_149
*1088 FILLER_0_31_15
*1089 FILLER_0_31_161
*1090 FILLER_0_31_167
*1091 FILLER_0_31_169
*1092 FILLER_0_31_181
*1093 FILLER_0_31_193
*1094 FILLER_0_31_205
*1095 FILLER_0_31_217
*1096 FILLER_0_31_223
*1097 FILLER_0_31_225
*1098 FILLER_0_31_237
*1099 FILLER_0_31_249
*1100 FILLER_0_31_261
*1101 FILLER_0_31_27
*1102 FILLER_0_31_273
*1103 FILLER_0_31_279
*1104 FILLER_0_31_281
*1105 FILLER_0_31_293
*1106 FILLER_0_31_3
*1107 FILLER_0_31_305
*1108 FILLER_0_31_317
*1109 FILLER_0_31_329
*1110 FILLER_0_31_335
*1111 FILLER_0_31_337
*1112 FILLER_0_31_349
*1113 FILLER_0_31_361
*1114 FILLER_0_31_373
*1115 FILLER_0_31_385
*1116 FILLER_0_31_39
*1117 FILLER_0_31_391
*1118 FILLER_0_31_393
*1119 FILLER_0_31_405
*1120 FILLER_0_31_51
*1121 FILLER_0_31_55
*1122 FILLER_0_31_57
*1123 FILLER_0_31_69
*1124 FILLER_0_31_81
*1125 FILLER_0_31_93
*1126 FILLER_0_32_109
*1127 FILLER_0_32_121
*1128 FILLER_0_32_133
*1129 FILLER_0_32_139
*1130 FILLER_0_32_141
*1131 FILLER_0_32_15
*1132 FILLER_0_32_153
*1133 FILLER_0_32_165
*1134 FILLER_0_32_177
*1135 FILLER_0_32_189
*1136 FILLER_0_32_195
*1137 FILLER_0_32_197
*1138 FILLER_0_32_209
*1139 FILLER_0_32_221
*1140 FILLER_0_32_233
*1141 FILLER_0_32_245
*1142 FILLER_0_32_251
*1143 FILLER_0_32_253
*1144 FILLER_0_32_265
*1145 FILLER_0_32_27
*1146 FILLER_0_32_277
*1147 FILLER_0_32_289
*1148 FILLER_0_32_29
*1149 FILLER_0_32_3
*1150 FILLER_0_32_301
*1151 FILLER_0_32_307
*1152 FILLER_0_32_309
*1153 FILLER_0_32_321
*1154 FILLER_0_32_333
*1155 FILLER_0_32_345
*1156 FILLER_0_32_357
*1157 FILLER_0_32_363
*1158 FILLER_0_32_365
*1159 FILLER_0_32_377
*1160 FILLER_0_32_389
*1161 FILLER_0_32_401
*1162 FILLER_0_32_41
*1163 FILLER_0_32_53
*1164 FILLER_0_32_65
*1165 FILLER_0_32_77
*1166 FILLER_0_32_83
*1167 FILLER_0_32_85
*1168 FILLER_0_32_97
*1169 FILLER_0_33_105
*1170 FILLER_0_33_111
*1171 FILLER_0_33_113
*1172 FILLER_0_33_125
*1173 FILLER_0_33_137
*1174 FILLER_0_33_149
*1175 FILLER_0_33_161
*1176 FILLER_0_33_167
*1177 FILLER_0_33_169
*1178 FILLER_0_33_18
*1179 FILLER_0_33_181
*1180 FILLER_0_33_193
*1181 FILLER_0_33_205
*1182 FILLER_0_33_217
*1183 FILLER_0_33_223
*1184 FILLER_0_33_225
*1185 FILLER_0_33_237
*1186 FILLER_0_33_249
*1187 FILLER_0_33_261
*1188 FILLER_0_33_273
*1189 FILLER_0_33_279
*1190 FILLER_0_33_281
*1191 FILLER_0_33_293
*1192 FILLER_0_33_30
*1193 FILLER_0_33_305
*1194 FILLER_0_33_317
*1195 FILLER_0_33_329
*1196 FILLER_0_33_335
*1197 FILLER_0_33_337
*1198 FILLER_0_33_349
*1199 FILLER_0_33_361
*1200 FILLER_0_33_373
*1201 FILLER_0_33_385
*1202 FILLER_0_33_391
*1203 FILLER_0_33_393
*1204 FILLER_0_33_405
*1205 FILLER_0_33_42
*1206 FILLER_0_33_54
*1207 FILLER_0_33_57
*1208 FILLER_0_33_6
*1209 FILLER_0_33_69
*1210 FILLER_0_33_81
*1211 FILLER_0_33_93
*1212 FILLER_0_34_109
*1213 FILLER_0_34_121
*1214 FILLER_0_34_133
*1215 FILLER_0_34_139
*1216 FILLER_0_34_141
*1217 FILLER_0_34_15
*1218 FILLER_0_34_153
*1219 FILLER_0_34_165
*1220 FILLER_0_34_177
*1221 FILLER_0_34_189
*1222 FILLER_0_34_195
*1223 FILLER_0_34_197
*1224 FILLER_0_34_209
*1225 FILLER_0_34_221
*1226 FILLER_0_34_233
*1227 FILLER_0_34_245
*1228 FILLER_0_34_251
*1229 FILLER_0_34_253
*1230 FILLER_0_34_265
*1231 FILLER_0_34_27
*1232 FILLER_0_34_277
*1233 FILLER_0_34_289
*1234 FILLER_0_34_29
*1235 FILLER_0_34_3
*1236 FILLER_0_34_301
*1237 FILLER_0_34_307
*1238 FILLER_0_34_309
*1239 FILLER_0_34_321
*1240 FILLER_0_34_333
*1241 FILLER_0_34_345
*1242 FILLER_0_34_357
*1243 FILLER_0_34_363
*1244 FILLER_0_34_365
*1245 FILLER_0_34_377
*1246 FILLER_0_34_389
*1247 FILLER_0_34_401
*1248 FILLER_0_34_41
*1249 FILLER_0_34_53
*1250 FILLER_0_34_65
*1251 FILLER_0_34_77
*1252 FILLER_0_34_83
*1253 FILLER_0_34_85
*1254 FILLER_0_34_97
*1255 FILLER_0_35_105
*1256 FILLER_0_35_111
*1257 FILLER_0_35_113
*1258 FILLER_0_35_125
*1259 FILLER_0_35_137
*1260 FILLER_0_35_149
*1261 FILLER_0_35_15
*1262 FILLER_0_35_161
*1263 FILLER_0_35_167
*1264 FILLER_0_35_169
*1265 FILLER_0_35_181
*1266 FILLER_0_35_193
*1267 FILLER_0_35_205
*1268 FILLER_0_35_217
*1269 FILLER_0_35_223
*1270 FILLER_0_35_225
*1271 FILLER_0_35_237
*1272 FILLER_0_35_249
*1273 FILLER_0_35_261
*1274 FILLER_0_35_27
*1275 FILLER_0_35_273
*1276 FILLER_0_35_279
*1277 FILLER_0_35_281
*1278 FILLER_0_35_293
*1279 FILLER_0_35_3
*1280 FILLER_0_35_305
*1281 FILLER_0_35_317
*1282 FILLER_0_35_329
*1283 FILLER_0_35_335
*1284 FILLER_0_35_337
*1285 FILLER_0_35_349
*1286 FILLER_0_35_361
*1287 FILLER_0_35_373
*1288 FILLER_0_35_385
*1289 FILLER_0_35_39
*1290 FILLER_0_35_391
*1291 FILLER_0_35_393
*1292 FILLER_0_35_405
*1293 FILLER_0_35_51
*1294 FILLER_0_35_55
*1295 FILLER_0_35_57
*1296 FILLER_0_35_69
*1297 FILLER_0_35_81
*1298 FILLER_0_35_93
*1299 FILLER_0_36_109
*1300 FILLER_0_36_121
*1301 FILLER_0_36_133
*1302 FILLER_0_36_139
*1303 FILLER_0_36_141
*1304 FILLER_0_36_15
*1305 FILLER_0_36_153
*1306 FILLER_0_36_165
*1307 FILLER_0_36_177
*1308 FILLER_0_36_189
*1309 FILLER_0_36_195
*1310 FILLER_0_36_197
*1311 FILLER_0_36_209
*1312 FILLER_0_36_221
*1313 FILLER_0_36_233
*1314 FILLER_0_36_245
*1315 FILLER_0_36_251
*1316 FILLER_0_36_253
*1317 FILLER_0_36_265
*1318 FILLER_0_36_27
*1319 FILLER_0_36_277
*1320 FILLER_0_36_289
*1321 FILLER_0_36_29
*1322 FILLER_0_36_3
*1323 FILLER_0_36_301
*1324 FILLER_0_36_307
*1325 FILLER_0_36_309
*1326 FILLER_0_36_321
*1327 FILLER_0_36_333
*1328 FILLER_0_36_345
*1329 FILLER_0_36_357
*1330 FILLER_0_36_363
*1331 FILLER_0_36_365
*1332 FILLER_0_36_377
*1333 FILLER_0_36_389
*1334 FILLER_0_36_401
*1335 FILLER_0_36_41
*1336 FILLER_0_36_53
*1337 FILLER_0_36_65
*1338 FILLER_0_36_77
*1339 FILLER_0_36_83
*1340 FILLER_0_36_85
*1341 FILLER_0_36_97
*1342 FILLER_0_37_105
*1343 FILLER_0_37_111
*1344 FILLER_0_37_113
*1345 FILLER_0_37_125
*1346 FILLER_0_37_137
*1347 FILLER_0_37_149
*1348 FILLER_0_37_15
*1349 FILLER_0_37_161
*1350 FILLER_0_37_167
*1351 FILLER_0_37_169
*1352 FILLER_0_37_181
*1353 FILLER_0_37_193
*1354 FILLER_0_37_205
*1355 FILLER_0_37_217
*1356 FILLER_0_37_223
*1357 FILLER_0_37_225
*1358 FILLER_0_37_237
*1359 FILLER_0_37_249
*1360 FILLER_0_37_261
*1361 FILLER_0_37_27
*1362 FILLER_0_37_273
*1363 FILLER_0_37_279
*1364 FILLER_0_37_281
*1365 FILLER_0_37_293
*1366 FILLER_0_37_3
*1367 FILLER_0_37_305
*1368 FILLER_0_37_317
*1369 FILLER_0_37_329
*1370 FILLER_0_37_335
*1371 FILLER_0_37_337
*1372 FILLER_0_37_349
*1373 FILLER_0_37_361
*1374 FILLER_0_37_373
*1375 FILLER_0_37_385
*1376 FILLER_0_37_39
*1377 FILLER_0_37_391
*1378 FILLER_0_37_393
*1379 FILLER_0_37_405
*1380 FILLER_0_37_51
*1381 FILLER_0_37_55
*1382 FILLER_0_37_57
*1383 FILLER_0_37_69
*1384 FILLER_0_37_81
*1385 FILLER_0_37_93
*1386 FILLER_0_38_109
*1387 FILLER_0_38_121
*1388 FILLER_0_38_133
*1389 FILLER_0_38_139
*1390 FILLER_0_38_141
*1391 FILLER_0_38_15
*1392 FILLER_0_38_153
*1393 FILLER_0_38_165
*1394 FILLER_0_38_177
*1395 FILLER_0_38_189
*1396 FILLER_0_38_195
*1397 FILLER_0_38_197
*1398 FILLER_0_38_209
*1399 FILLER_0_38_221
*1400 FILLER_0_38_233
*1401 FILLER_0_38_245
*1402 FILLER_0_38_251
*1403 FILLER_0_38_253
*1404 FILLER_0_38_265
*1405 FILLER_0_38_27
*1406 FILLER_0_38_277
*1407 FILLER_0_38_289
*1408 FILLER_0_38_29
*1409 FILLER_0_38_3
*1410 FILLER_0_38_301
*1411 FILLER_0_38_307
*1412 FILLER_0_38_309
*1413 FILLER_0_38_321
*1414 FILLER_0_38_333
*1415 FILLER_0_38_345
*1416 FILLER_0_38_357
*1417 FILLER_0_38_363
*1418 FILLER_0_38_365
*1419 FILLER_0_38_377
*1420 FILLER_0_38_389
*1421 FILLER_0_38_401
*1422 FILLER_0_38_41
*1423 FILLER_0_38_53
*1424 FILLER_0_38_65
*1425 FILLER_0_38_77
*1426 FILLER_0_38_83
*1427 FILLER_0_38_85
*1428 FILLER_0_38_97
*1429 FILLER_0_39_105
*1430 FILLER_0_39_111