*SPEF "ieee 1481-1999"
*DESIGN "decoder_proj"
*DATE "11:11:11 Fri 11 11, 1111"
*VENDOR "OpenRCX"
*PROGRAM "Parallel Extraction"
*VERSION "1.0"
*DESIGN_FLOW "NAME_SCOPE LOCAL" "PIN_CAP NONE"
*DIVIDER /
*DELIMITER :
*BUS_DELIMITER []
*T_UNIT 1 NS
*C_UNIT 1 PF
*R_UNIT 1 OHM
*L_UNIT 1 HENRY

*NAME_MAP
*1 enable
*2 io_in[0]
*3 io_in[1]
*4 io_in[2]
*5 io_in[3]
*6 io_in[4]
*7 io_in[5]
*8 io_out[0]
*9 io_out[10]
*10 io_out[11]
*11 io_out[12]
*12 io_out[13]
*13 io_out[14]
*14 io_out[15]
*15 io_out[16]
*16 io_out[17]
*17 io_out[18]
*18 io_out[19]
*19 io_out[1]
*20 io_out[20]
*21 io_out[21]
*22 io_out[22]
*23 io_out[23]
*24 io_out[24]
*25 io_out[25]
*26 io_out[26]
*27 io_out[27]
*28 io_out[28]
*29 io_out[29]
*30 io_out[2]
*31 io_out[30]
*32 io_out[31]
*33 io_out[32]
*34 io_out[33]
*35 io_out[34]
*36 io_out[35]
*37 io_out[36]
*38 io_out[37]
*39 io_out[38]
*40 io_out[39]
*41 io_out[3]
*42 io_out[40]
*43 io_out[41]
*44 io_out[42]
*45 io_out[43]
*46 io_out[44]
*47 io_out[45]
*48 io_out[46]
*49 io_out[47]
*50 io_out[48]
*51 io_out[49]
*52 io_out[4]
*53 io_out[50]
*54 io_out[51]
*55 io_out[52]
*56 io_out[53]
*57 io_out[54]
*58 io_out[55]
*59 io_out[56]
*60 io_out[57]
*61 io_out[58]
*62 io_out[59]
*63 io_out[5]
*64 io_out[60]
*65 io_out[61]
*66 io_out[62]
*67 io_out[63]
*68 io_out[6]
*69 io_out[7]
*70 io_out[8]
*71 io_out[9]
*74 _000_
*75 _001_
*76 _002_
*77 _003_
*78 _004_
*79 _005_
*80 _006_
*81 _007_
*82 _008_
*83 _009_
*84 _010_
*85 _011_
*86 _012_
*87 _013_
*88 _014_
*89 _015_
*90 _016_
*91 _017_
*92 _018_
*93 _019_
*94 net1
*95 net10
*96 net11
*97 net12
*98 net13
*99 net14
*100 net15
*101 net16
*102 net17
*103 net18
*104 net19
*105 net2
*106 net20
*107 net21
*108 net22
*109 net23
*110 net24
*111 net25
*112 net26
*113 net27
*114 net28
*115 net29
*116 net3
*117 net30
*118 net31
*119 net32
*120 net33
*121 net34
*122 net35
*123 net36
*124 net37
*125 net38
*126 net39
*127 net4
*128 net40
*129 net41
*130 net42
*131 net43
*132 net44
*133 net45
*134 net46
*135 net47
*136 net48
*137 net49
*138 net5
*139 net50
*140 net51
*141 net52
*142 net53
*143 net54
*144 net55
*145 net56
*146 net57
*147 net58
*148 net59
*149 net6
*150 net60
*151 net61
*152 net62
*153 net63
*154 net64
*155 net65
*156 net66
*157 net67
*158 net68
*159 net69
*160 net7
*161 net70
*162 net71
*163 net8
*164 net9
*165 ANTENNA__020__A
*166 ANTENNA__020__B
*167 ANTENNA__020__C
*168 ANTENNA__020__D_N
*169 ANTENNA__021__A_N
*170 ANTENNA__021__B
*171 ANTENNA__021__C
*172 ANTENNA__022__A
*173 ANTENNA__023__A
*174 ANTENNA__023__B
*175 ANTENNA__023__C_N
*176 ANTENNA__023__D_N
*177 ANTENNA__025__A
*178 ANTENNA__025__B
*179 ANTENNA__025__C
*180 ANTENNA__025__D_N
*181 ANTENNA__026__B
*182 ANTENNA__027__A
*183 ANTENNA__027__B
*184 ANTENNA__027__C_N
*185 ANTENNA__027__D_N
*186 ANTENNA__028__B
*187 ANTENNA__029__A
*188 ANTENNA__029__B
*189 ANTENNA__029__C_N
*190 ANTENNA__029__D_N
*191 ANTENNA__030__B
*192 ANTENNA__031__A_N
*193 ANTENNA__031__B
*194 ANTENNA__031__C
*195 ANTENNA__031__D
*196 ANTENNA__032__B
*197 ANTENNA__033__A
*198 ANTENNA__033__B
*199 ANTENNA__033__C
*200 ANTENNA__033__D_N
*201 ANTENNA__034__B
*202 ANTENNA__035__A
*203 ANTENNA__035__B
*204 ANTENNA__035__C_N
*205 ANTENNA__035__D_N
*206 ANTENNA__037__A
*207 ANTENNA__037__B
*208 ANTENNA__037__C_N
*209 ANTENNA__037__D_N
*210 ANTENNA__038__B
*211 ANTENNA__039__A_N
*212 ANTENNA__039__B
*213 ANTENNA__039__C
*214 ANTENNA__039__D
*215 ANTENNA__041__A
*216 ANTENNA__041__B
*217 ANTENNA__041__C_N
*218 ANTENNA__041__D_N
*219 ANTENNA__043__A_N
*220 ANTENNA__043__B
*221 ANTENNA__043__C
*222 ANTENNA__043__D
*223 ANTENNA__045__A_N
*224 ANTENNA__045__B
*225 ANTENNA__045__C
*226 ANTENNA__045__D
*227 ANTENNA__047__A
*228 ANTENNA__047__B
*229 ANTENNA__047__C
*230 ANTENNA__047__D
*231 ANTENNA__049__A
*232 ANTENNA__049__B
*233 ANTENNA__049__C
*234 ANTENNA__049__D
*235 ANTENNA__050__A
*236 ANTENNA__050__B
*237 ANTENNA__050__C
*238 ANTENNA__052__A
*239 ANTENNA__052__B
*240 ANTENNA__052__C
*241 ANTENNA__052__D_N
*242 ANTENNA__053__B
*243 ANTENNA__054__A
*244 ANTENNA__056__A
*245 ANTENNA__057__A
*246 ANTENNA__058__A
*247 ANTENNA__059__A
*248 ANTENNA__060__A
*249 ANTENNA__062__A
*250 ANTENNA__068__A
*251 ANTENNA__068__B
*252 ANTENNA__068__C_N
*253 ANTENNA__069__A
*254 ANTENNA__071__A
*255 ANTENNA__073__A
*256 ANTENNA__074__A
*257 ANTENNA__075__A
*258 ANTENNA__076__A
*259 ANTENNA__077__A
*260 ANTENNA__079__A
*261 ANTENNA__085__A_N
*262 ANTENNA__085__B
*263 ANTENNA__085__C
*264 ANTENNA__087__A
*265 ANTENNA__088__A
*266 ANTENNA__090__A
*267 ANTENNA__091__A
*268 ANTENNA__092__A
*269 ANTENNA__093__A
*270 ANTENNA__094__A
*271 ANTENNA__096__A
*272 ANTENNA__103__B
*273 FILLER_0_0_109
*274 FILLER_0_0_113
*275 FILLER_0_0_125
*276 FILLER_0_0_137
*277 FILLER_0_0_141
*278 FILLER_0_0_15
*279 FILLER_0_0_153
*280 FILLER_0_0_165
*281 FILLER_0_0_169
*282 FILLER_0_0_181
*283 FILLER_0_0_193
*284 FILLER_0_0_197
*285 FILLER_0_0_209
*286 FILLER_0_0_221
*287 FILLER_0_0_225
*288 FILLER_0_0_237
*289 FILLER_0_0_249
*290 FILLER_0_0_253
*291 FILLER_0_0_265
*292 FILLER_0_0_27
*293 FILLER_0_0_277
*294 FILLER_0_0_281
*295 FILLER_0_0_29
*296 FILLER_0_0_293
*297 FILLER_0_0_3
*298 FILLER_0_0_305
*299 FILLER_0_0_309
*300 FILLER_0_0_321
*301 FILLER_0_0_333
*302 FILLER_0_0_337
*303 FILLER_0_0_349
*304 FILLER_0_0_361
*305 FILLER_0_0_365
*306 FILLER_0_0_377
*307 FILLER_0_0_389
*308 FILLER_0_0_393
*309 FILLER_0_0_405
*310 FILLER_0_0_41
*311 FILLER_0_0_53
*312 FILLER_0_0_57
*313 FILLER_0_0_69
*314 FILLER_0_0_81
*315 FILLER_0_0_85
*316 FILLER_0_0_97
*317 FILLER_0_10_109
*318 FILLER_0_10_121
*319 FILLER_0_10_133
*320 FILLER_0_10_139
*321 FILLER_0_10_141
*322 FILLER_0_10_15
*323 FILLER_0_10_153
*324 FILLER_0_10_165
*325 FILLER_0_10_177
*326 FILLER_0_10_189
*327 FILLER_0_10_195
*328 FILLER_0_10_197
*329 FILLER_0_10_209
*330 FILLER_0_10_221
*331 FILLER_0_10_233
*332 FILLER_0_10_245
*333 FILLER_0_10_251
*334 FILLER_0_10_253
*335 FILLER_0_10_265
*336 FILLER_0_10_27
*337 FILLER_0_10_277
*338 FILLER_0_10_289
*339 FILLER_0_10_29
*340 FILLER_0_10_3
*341 FILLER_0_10_301
*342 FILLER_0_10_307
*343 FILLER_0_10_309
*344 FILLER_0_10_321
*345 FILLER_0_10_333
*346 FILLER_0_10_345
*347 FILLER_0_10_357
*348 FILLER_0_10_363
*349 FILLER_0_10_365
*350 FILLER_0_10_377
*351 FILLER_0_10_389
*352 FILLER_0_10_401
*353 FILLER_0_10_41
*354 FILLER_0_10_53
*355 FILLER_0_10_65
*356 FILLER_0_10_77
*357 FILLER_0_10_83
*358 FILLER_0_10_85
*359 FILLER_0_10_97
*360 FILLER_0_11_105
*361 FILLER_0_11_111
*362 FILLER_0_11_113
*363 FILLER_0_11_125
*364 FILLER_0_11_137
*365 FILLER_0_11_149
*366 FILLER_0_11_15
*367 FILLER_0_11_161
*368 FILLER_0_11_167
*369 FILLER_0_11_169
*370 FILLER_0_11_181
*371 FILLER_0_11_193
*372 FILLER_0_11_205
*373 FILLER_0_11_217
*374 FILLER_0_11_223
*375 FILLER_0_11_225
*376 FILLER_0_11_237
*377 FILLER_0_11_249
*378 FILLER_0_11_261
*379 FILLER_0_11_27
*380 FILLER_0_11_273
*381 FILLER_0_11_279
*382 FILLER_0_11_281
*383 FILLER_0_11_293
*384 FILLER_0_11_3
*385 FILLER_0_11_305
*386 FILLER_0_11_317
*387 FILLER_0_11_329
*388 FILLER_0_11_335
*389 FILLER_0_11_337
*390 FILLER_0_11_349
*391 FILLER_0_11_361
*392 FILLER_0_11_373
*393 FILLER_0_11_385
*394 FILLER_0_11_389
*395 FILLER_0_11_39
*396 FILLER_0_11_393
*397 FILLER_0_11_51
*398 FILLER_0_11_55
*399 FILLER_0_11_57
*400 FILLER_0_11_69
*401 FILLER_0_11_81
*402 FILLER_0_11_93
*403 FILLER_0_12_109
*404 FILLER_0_12_12
*405 FILLER_0_12_121
*406 FILLER_0_12_133
*407 FILLER_0_12_139
*408 FILLER_0_12_141
*409 FILLER_0_12_153
*410 FILLER_0_12_165
*411 FILLER_0_12_177
*412 FILLER_0_12_189
*413 FILLER_0_12_195
*414 FILLER_0_12_197
*415 FILLER_0_12_209
*416 FILLER_0_12_221
*417 FILLER_0_12_233
*418 FILLER_0_12_24
*419 FILLER_0_12_245
*420 FILLER_0_12_251
*421 FILLER_0_12_253
*422 FILLER_0_12_265
*423 FILLER_0_12_277
*424 FILLER_0_12_289
*425 FILLER_0_12_29
*426 FILLER_0_12_301
*427 FILLER_0_12_307
*428 FILLER_0_12_309
*429 FILLER_0_12_321
*430 FILLER_0_12_333
*431 FILLER_0_12_345
*432 FILLER_0_12_357
*433 FILLER_0_12_363
*434 FILLER_0_12_365
*435 FILLER_0_12_377
*436 FILLER_0_12_383
*437 FILLER_0_12_387
*438 FILLER_0_12_391
*439 FILLER_0_12_398
*440 FILLER_0_12_41
*441 FILLER_0_12_53
*442 FILLER_0_12_65
*443 FILLER_0_12_77
*444 FILLER_0_12_83
*445 FILLER_0_12_85
*446 FILLER_0_12_97
*447 FILLER_0_13_105
*448 FILLER_0_13_111
*449 FILLER_0_13_113
*450 FILLER_0_13_125
*451 FILLER_0_13_137
*452 FILLER_0_13_149
*453 FILLER_0_13_15
*454 FILLER_0_13_161
*455 FILLER_0_13_167
*456 FILLER_0_13_169
*457 FILLER_0_13_181
*458 FILLER_0_13_193
*459 FILLER_0_13_205
*460 FILLER_0_13_217
*461 FILLER_0_13_223
*462 FILLER_0_13_225
*463 FILLER_0_13_237
*464 FILLER_0_13_249
*465 FILLER_0_13_261
*466 FILLER_0_13_27
*467 FILLER_0_13_273
*468 FILLER_0_13_279
*469 FILLER_0_13_281
*470 FILLER_0_13_293
*471 FILLER_0_13_3
*472 FILLER_0_13_305
*473 FILLER_0_13_317
*474 FILLER_0_13_329
*475 FILLER_0_13_335
*476 FILLER_0_13_337
*477 FILLER_0_13_349
*478 FILLER_0_13_361
*479 FILLER_0_13_375
*480 FILLER_0_13_379
*481 FILLER_0_13_383
*482 FILLER_0_13_386
*483 FILLER_0_13_39
*484 FILLER_0_13_399
*485 FILLER_0_13_51
*486 FILLER_0_13_55
*487 FILLER_0_13_57
*488 FILLER_0_13_69
*489 FILLER_0_13_81
*490 FILLER_0_13_93
*491 FILLER_0_14_109
*492 FILLER_0_14_121
*493 FILLER_0_14_133
*494 FILLER_0_14_139
*495 FILLER_0_14_141
*496 FILLER_0_14_15
*497 FILLER_0_14_153
*498 FILLER_0_14_165
*499 FILLER_0_14_177
*500 FILLER_0_14_189
*501 FILLER_0_14_195
*502 FILLER_0_14_197
*503 FILLER_0_14_209
*504 FILLER_0_14_221
*505 FILLER_0_14_233
*506 FILLER_0_14_245
*507 FILLER_0_14_251
*508 FILLER_0_14_253
*509 FILLER_0_14_265
*510 FILLER_0_14_27
*511 FILLER_0_14_277
*512 FILLER_0_14_289
*513 FILLER_0_14_29
*514 FILLER_0_14_3
*515 FILLER_0_14_301
*516 FILLER_0_14_307
*517 FILLER_0_14_309
*518 FILLER_0_14_321
*519 FILLER_0_14_333
*520 FILLER_0_14_345
*521 FILLER_0_14_357
*522 FILLER_0_14_363
*523 FILLER_0_14_365
*524 FILLER_0_14_369
*525 FILLER_0_14_372
*526 FILLER_0_14_376
*527 FILLER_0_14_380
*528 FILLER_0_14_384
*529 FILLER_0_14_41
*530 FILLER_0_14_53
*531 FILLER_0_14_65
*532 FILLER_0_14_77
*533 FILLER_0_14_83
*534 FILLER_0_14_85
*535 FILLER_0_14_97
*536 FILLER_0_15_105
*537 FILLER_0_15_111
*538 FILLER_0_15_113
*539 FILLER_0_15_125
*540 FILLER_0_15_137
*541 FILLER_0_15_149
*542 FILLER_0_15_15
*543 FILLER_0_15_161
*544 FILLER_0_15_167
*545 FILLER_0_15_169
*546 FILLER_0_15_181
*547 FILLER_0_15_193
*548 FILLER_0_15_205
*549 FILLER_0_15_217
*550 FILLER_0_15_223
*551 FILLER_0_15_225
*552 FILLER_0_15_237
*553 FILLER_0_15_249
*554 FILLER_0_15_261
*555 FILLER_0_15_27
*556 FILLER_0_15_273
*557 FILLER_0_15_279
*558 FILLER_0_15_281
*559 FILLER_0_15_293
*560 FILLER_0_15_3
*561 FILLER_0_15_305
*562 FILLER_0_15_317
*563 FILLER_0_15_329
*564 FILLER_0_15_335
*565 FILLER_0_15_337
*566 FILLER_0_15_349
*567 FILLER_0_15_357
*568 FILLER_0_15_362
*569 FILLER_0_15_366
*570 FILLER_0_15_370
*571 FILLER_0_15_374
*572 FILLER_0_15_39
*573 FILLER_0_15_405
*574 FILLER_0_15_51
*575 FILLER_0_15_55
*576 FILLER_0_15_57
*577 FILLER_0_15_69
*578 FILLER_0_15_81
*579 FILLER_0_15_93
*580 FILLER_0_16_109
*581 FILLER_0_16_121
*582 FILLER_0_16_133
*583 FILLER_0_16_139
*584 FILLER_0_16_141
*585 FILLER_0_16_15
*586 FILLER_0_16_153
*587 FILLER_0_16_165
*588 FILLER_0_16_177
*589 FILLER_0_16_189
*590 FILLER_0_16_195
*591 FILLER_0_16_197
*592 FILLER_0_16_209
*593 FILLER_0_16_221
*594 FILLER_0_16_233
*595 FILLER_0_16_245
*596 FILLER_0_16_251
*597 FILLER_0_16_253
*598 FILLER_0_16_265
*599 FILLER_0_16_27
*600 FILLER_0_16_277
*601 FILLER_0_16_289
*602 FILLER_0_16_29
*603 FILLER_0_16_3
*604 FILLER_0_16_301
*605 FILLER_0_16_307
*606 FILLER_0_16_309
*607 FILLER_0_16_321
*608 FILLER_0_16_333
*609 FILLER_0_16_345
*610 FILLER_0_16_357
*611 FILLER_0_16_360
*612 FILLER_0_16_365
*613 FILLER_0_16_369
*614 FILLER_0_16_372
*615 FILLER_0_16_376
*616 FILLER_0_16_380
*617 FILLER_0_16_384
*618 FILLER_0_16_405
*619 FILLER_0_16_41
*620 FILLER_0_16_53
*621 FILLER_0_16_65
*622 FILLER_0_16_77
*623 FILLER_0_16_83
*624 FILLER_0_16_85
*625 FILLER_0_16_97
*626 FILLER_0_17_105
*627 FILLER_0_17_111
*628 FILLER_0_17_113
*629 FILLER_0_17_125
*630 FILLER_0_17_137
*631 FILLER_0_17_149
*632 FILLER_0_17_15
*633 FILLER_0_17_161
*634 FILLER_0_17_167
*635 FILLER_0_17_169
*636 FILLER_0_17_181
*637 FILLER_0_17_193
*638 FILLER_0_17_205
*639 FILLER_0_17_217
*640 FILLER_0_17_223
*641 FILLER_0_17_225
*642 FILLER_0_17_237
*643 FILLER_0_17_249
*644 FILLER_0_17_261
*645 FILLER_0_17_27
*646 FILLER_0_17_273
*647 FILLER_0_17_279
*648 FILLER_0_17_281
*649 FILLER_0_17_293
*650 FILLER_0_17_3
*651 FILLER_0_17_305
*652 FILLER_0_17_317
*653 FILLER_0_17_329
*654 FILLER_0_17_335
*655 FILLER_0_17_337
*656 FILLER_0_17_349
*657 FILLER_0_17_353
*658 FILLER_0_17_356
*659 FILLER_0_17_360
*660 FILLER_0_17_364
*661 FILLER_0_17_368
*662 FILLER_0_17_372
*663 FILLER_0_17_376
*664 FILLER_0_17_381
*665 FILLER_0_17_387
*666 FILLER_0_17_39
*667 FILLER_0_17_51
*668 FILLER_0_17_55
*669 FILLER_0_17_57
*670 FILLER_0_17_69
*671 FILLER_0_17_81
*672 FILLER_0_17_93
*673 FILLER_0_18_109
*674 FILLER_0_18_121
*675 FILLER_0_18_133
*676 FILLER_0_18_139
*677 FILLER_0_18_141
*678 FILLER_0_18_15
*679 FILLER_0_18_153
*680 FILLER_0_18_165
*681 FILLER_0_18_177
*682 FILLER_0_18_189
*683 FILLER_0_18_195
*684 FILLER_0_18_197
*685 FILLER_0_18_209
*686 FILLER_0_18_221
*687 FILLER_0_18_233
*688 FILLER_0_18_245
*689 FILLER_0_18_251
*690 FILLER_0_18_253
*691 FILLER_0_18_265
*692 FILLER_0_18_27
*693 FILLER_0_18_277
*694 FILLER_0_18_289
*695 FILLER_0_18_29
*696 FILLER_0_18_3
*697 FILLER_0_18_301
*698 FILLER_0_18_307
*699 FILLER_0_18_309
*700 FILLER_0_18_321
*701 FILLER_0_18_333
*702 FILLER_0_18_345
*703 FILLER_0_18_357
*704 FILLER_0_18_360
*705 FILLER_0_18_365
*706 FILLER_0_18_371
*707 FILLER_0_18_375
*708 FILLER_0_18_41
*709 FILLER_0_18_53
*710 FILLER_0_18_65
*711 FILLER_0_18_77
*712 FILLER_0_18_83
*713 FILLER_0_18_85
*714 FILLER_0_18_97
*715 FILLER_0_19_105
*716 FILLER_0_19_111
*717 FILLER_0_19_113
*718 FILLER_0_19_125
*719 FILLER_0_19_137
*720 FILLER_0_19_149
*721 FILLER_0_19_15
*722 FILLER_0_19_161
*723 FILLER_0_19_167
*724 FILLER_0_19_169
*725 FILLER_0_19_181
*726 FILLER_0_19_193
*727 FILLER_0_19_205
*728 FILLER_0_19_217
*729 FILLER_0_19_223
*730 FILLER_0_19_225
*731 FILLER_0_19_237
*732 FILLER_0_19_249
*733 FILLER_0_19_261
*734 FILLER_0_19_27
*735 FILLER_0_19_273
*736 FILLER_0_19_279
*737 FILLER_0_19_281
*738 FILLER_0_19_293
*739 FILLER_0_19_3
*740 FILLER_0_19_305
*741 FILLER_0_19_317
*742 FILLER_0_19_329
*743 FILLER_0_19_335
*744 FILLER_0_19_337
*745 FILLER_0_19_351
*746 FILLER_0_19_355
*747 FILLER_0_19_359
*748 FILLER_0_19_363
*749 FILLER_0_19_367
*750 FILLER_0_19_371
*751 FILLER_0_19_39
*752 FILLER_0_19_405
*753 FILLER_0_19_51
*754 FILLER_0_19_55
*755 FILLER_0_19_57
*756 FILLER_0_19_69
*757 FILLER_0_19_81
*758 FILLER_0_19_93
*759 FILLER_0_1_105
*760 FILLER_0_1_111
*761 FILLER_0_1_113
*762 FILLER_0_1_125
*763 FILLER_0_1_137
*764 FILLER_0_1_149
*765 FILLER_0_1_15
*766 FILLER_0_1_161
*767 FILLER_0_1_167
*768 FILLER_0_1_169
*769 FILLER_0_1_181
*770 FILLER_0_1_193
*771 FILLER_0_1_205
*772 FILLER_0_1_217
*773 FILLER_0_1_223
*774 FILLER_0_1_225
*775 FILLER_0_1_237
*776 FILLER_0_1_249
*777 FILLER_0_1_261
*778 FILLER_0_1_27
*779 FILLER_0_1_273
*780 FILLER_0_1_279
*781 FILLER_0_1_281
*782 FILLER_0_1_293
*783 FILLER_0_1_305
*784 FILLER_0_1_317
*785 FILLER_0_1_329
*786 FILLER_0_1_335
*787 FILLER_0_1_337
*788 FILLER_0_1_349
*789 FILLER_0_1_361
*790 FILLER_0_1_373
*791 FILLER_0_1_385
*792 FILLER_0_1_39
*793 FILLER_0_1_391
*794 FILLER_0_1_393
*795 FILLER_0_1_51
*796 FILLER_0_1_55
*797 FILLER_0_1_57
*798 FILLER_0_1_69
*799 FILLER_0_1_81
*800 FILLER_0_1_93
*801 FILLER_0_20_109
*802 FILLER_0_20_121
*803 FILLER_0_20_133
*804 FILLER_0_20_139
*805 FILLER_0_20_141
*806 FILLER_0_20_15
*807 FILLER_0_20_153
*808 FILLER_0_20_165
*809 FILLER_0_20_177
*810 FILLER_0_20_189
*811 FILLER_0_20_195
*812 FILLER_0_20_197
*813 FILLER_0_20_209
*814 FILLER_0_20_221
*815 FILLER_0_20_233
*816 FILLER_0_20_245
*817 FILLER_0_20_251
*818 FILLER_0_20_253
*819 FILLER_0_20_265
*820 FILLER_0_20_27
*821 FILLER_0_20_277
*822 FILLER_0_20_289
*823 FILLER_0_20_29
*824 FILLER_0_20_3
*825 FILLER_0_20_301
*826 FILLER_0_20_307
*827 FILLER_0_20_309
*828 FILLER_0_20_321
*829 FILLER_0_20_333
*830 FILLER_0_20_345
*831 FILLER_0_20_353
*832 FILLER_0_20_356
*833 FILLER_0_20_360
*834 FILLER_0_20_365
*835 FILLER_0_20_369
*836 FILLER_0_20_374
*837 FILLER_0_20_378
*838 FILLER_0_20_382
*839 FILLER_0_20_41
*840 FILLER_0_20_53
*841 FILLER_0_20_65
*842 FILLER_0_20_77
*843 FILLER_0_20_83
*844 FILLER_0_20_85
*845 FILLER_0_20_97
*846 FILLER_0_21_105
*847 FILLER_0_21_111
*848 FILLER_0_21_113
*849 FILLER_0_21_125
*850 FILLER_0_21_137
*851 FILLER_0_21_149
*852 FILLER_0_21_15
*853 FILLER_0_21_161
*854 FILLER_0_21_167
*855 FILLER_0_21_169
*856 FILLER_0_21_181
*857 FILLER_0_21_193
*858 FILLER_0_21_205
*859 FILLER_0_21_217
*860 FILLER_0_21_223
*861 FILLER_0_21_225
*862 FILLER_0_21_237
*863 FILLER_0_21_249
*864 FILLER_0_21_261
*865 FILLER_0_21_27
*866 FILLER_0_21_273
*867 FILLER_0_21_279
*868 FILLER_0_21_281
*869 FILLER_0_21_293
*870 FILLER_0_21_3
*871 FILLER_0_21_305
*872 FILLER_0_21_317
*873 FILLER_0_21_329
*874 FILLER_0_21_335
*875 FILLER_0_21_337
*876 FILLER_0_21_345
*877 FILLER_0_21_349
*878 FILLER_0_21_353
*879 FILLER_0_21_357
*880 FILLER_0_21_361
*881 FILLER_0_21_365
*882 FILLER_0_21_39
*883 FILLER_0_21_51
*884 FILLER_0_21_55
*885 FILLER_0_21_57
*886 FILLER_0_21_69
*887 FILLER_0_21_81
*888 FILLER_0_21_93
*889 FILLER_0_22_109
*890 FILLER_0_22_12
*891 FILLER_0_22_121
*892 FILLER_0_22_133
*893 FILLER_0_22_139
*894 FILLER_0_22_141
*895 FILLER_0_22_153
*896 FILLER_0_22_165
*897 FILLER_0_22_177
*898 FILLER_0_22_189
*899 FILLER_0_22_195
*900 FILLER_0_22_197
*901 FILLER_0_22_209
*902 FILLER_0_22_221
*903 FILLER_0_22_233
*904 FILLER_0_22_24
*905 FILLER_0_22_245
*906 FILLER_0_22_251
*907 FILLER_0_22_253
*908 FILLER_0_22_265
*909 FILLER_0_22_277
*910 FILLER_0_22_289
*911 FILLER_0_22_29
*912 FILLER_0_22_301
*913 FILLER_0_22_307
*914 FILLER_0_22_309
*915 FILLER_0_22_321
*916 FILLER_0_22_333
*917 FILLER_0_22_345
*918 FILLER_0_22_353
*919 FILLER_0_22_356
*920 FILLER_0_22_360
*921 FILLER_0_22_365
*922 FILLER_0_22_371
*923 FILLER_0_22_375
*924 FILLER_0_22_379
*925 FILLER_0_22_402
*926 FILLER_0_22_41
*927 FILLER_0_22_53
*928 FILLER_0_22_65
*929 FILLER_0_22_77
*930 FILLER_0_22_83
*931 FILLER_0_22_85
*932 FILLER_0_22_97
*933 FILLER_0_23_105
*934 FILLER_0_23_111
*935 FILLER_0_23_113
*936 FILLER_0_23_125
*937 FILLER_0_23_137
*938 FILLER_0_23_149
*939 FILLER_0_23_15
*940 FILLER_0_23_161
*941 FILLER_0_23_167
*942 FILLER_0_23_169
*943 FILLER_0_23_181
*944 FILLER_0_23_193
*945 FILLER_0_23_205
*946 FILLER_0_23_217
*947 FILLER_0_23_223
*948 FILLER_0_23_225
*949 FILLER_0_23_237
*950 FILLER_0_23_249
*951 FILLER_0_23_261
*952 FILLER_0_23_27
*953 FILLER_0_23_273
*954 FILLER_0_23_279
*955 FILLER_0_23_281
*956 FILLER_0_23_293
*957 FILLER_0_23_3
*958 FILLER_0_23_305
*959 FILLER_0_23_317
*960 FILLER_0_23_329
*961 FILLER_0_23_335
*962 FILLER_0_23_337
*963 FILLER_0_23_349
*964 FILLER_0_23_361
*965 FILLER_0_23_367
*966 FILLER_0_23_371
*967 FILLER_0_23_39
*968 FILLER_0_23_393
*969 FILLER_0_23_51
*970 FILLER_0_23_55
*971 FILLER_0_23_57
*972 FILLER_0_23_69
*973 FILLER_0_23_81
*974 FILLER_0_23_93
*975 FILLER_0_24_109
*976 FILLER_0_24_121
*977 FILLER_0_24_133
*978 FILLER_0_24_139
*979 FILLER_0_24_141
*980 FILLER_0_24_15
*981 FILLER_0_24_153
*982 FILLER_0_24_165
*983 FILLER_0_24_177
*984 FILLER_0_24_189
*985 FILLER_0_24_195
*986 FILLER_0_24_197
*987 FILLER_0_24_209
*988 FILLER_0_24_221
*989 FILLER_0_24_233
*990 FILLER_0_24_245
*991 FILLER_0_24_251
*992 FILLER_0_24_253
*993 FILLER_0_24_265
*994 FILLER_0_24_27
*995 FILLER_0_24_277
*996 FILLER_0_24_289
*997 FILLER_0_24_29
*998 FILLER_0_24_3
*999 FILLER_0_24_301
*1000 FILLER_0_24_307
*1001 FILLER_0_24_309
*1002 FILLER_0_24_321
*1003 FILLER_0_24_333
*1004 FILLER_0_24_345
*1005 FILLER_0_24_357
*1006 FILLER_0_24_363
*1007 FILLER_0_24_365
*1008 FILLER_0_24_373
*1009 FILLER_0_24_379
*1010 FILLER_0_24_383
*1011 FILLER_0_24_405
*1012 FILLER_0_24_41
*1013 FILLER_0_24_53
*1014 FILLER_0_24_65
*1015 FILLER_0_24_77
*1016 FILLER_0_24_83
*1017 FILLER_0_24_85
*1018 FILLER_0_24_97
*1019 FILLER_0_25_105
*1020 FILLER_0_25_111
*1021 FILLER_0_25_113
*1022 FILLER_0_25_125
*1023 FILLER_0_25_137
*1024 FILLER_0_25_149
*1025 FILLER_0_25_15
*1026 FILLER_0_25_161
*1027 FILLER_0_25_167
*1028 FILLER_0_25_169
*1029 FILLER_0_25_181
*1030 FILLER_0_25_193
*1031 FILLER_0_25_205
*1032 FILLER_0_25_217
*1033 FILLER_0_25_223
*1034 FILLER_0_25_225
*1035 FILLER_0_25_237
*1036 FILLER_0_25_249
*1037 FILLER_0_25_261
*1038 FILLER_0_25_27
*1039 FILLER_0_25_273
*1040 FILLER_0_25_279
*1041 FILLER_0_25_281
*1042 FILLER_0_25_293
*1043 FILLER_0_25_3
*1044 FILLER_0_25_305
*1045 FILLER_0_25_317
*1046 FILLER_0_25_329
*1047 FILLER_0_25_335
*1048 FILLER_0_25_337
*1049 FILLER_0_25_349
*1050 FILLER_0_25_361
*1051 FILLER_0_25_375
*1052 FILLER_0_25_379
*1053 FILLER_0_25_383
*1054 FILLER_0_25_387
*1055 FILLER_0_25_39
*1056 FILLER_0_25_51
*1057 FILLER_0_25_55
*1058 FILLER_0_25_57
*1059 FILLER_0_25_69
*1060 FILLER_0_25_81
*1061 FILLER_0_25_93
*1062 FILLER_0_26_109
*1063 FILLER_0_26_121
*1064 FILLER_0_26_133
*1065 FILLER_0_26_139
*1066 FILLER_0_26_141
*1067 FILLER_0_26_15
*1068 FILLER_0_26_153
*1069 FILLER_0_26_165
*1070 FILLER_0_26_177
*1071 FILLER_0_26_189
*1072 FILLER_0_26_195
*1073 FILLER_0_26_197
*1074 FILLER_0_26_209
*1075 FILLER_0_26_221
*1076 FILLER_0_26_233
*1077 FILLER_0_26_245
*1078 FILLER_0_26_251
*1079 FILLER_0_26_253
*1080 FILLER_0_26_265
*1081 FILLER_0_26_27
*1082 FILLER_0_26_277
*1083 FILLER_0_26_289
*1084 FILLER_0_26_29
*1085 FILLER_0_26_3
*1086 FILLER_0_26_301
*1087 FILLER_0_26_307
*1088 FILLER_0_26_309
*1089 FILLER_0_26_321
*1090 FILLER_0_26_333
*1091 FILLER_0_26_345
*1092 FILLER_0_26_357
*1093 FILLER_0_26_363
*1094 FILLER_0_26_365
*1095 FILLER_0_26_377
*1096 FILLER_0_26_385
*1097 FILLER_0_26_389
*1098 FILLER_0_26_393
*1099 FILLER_0_26_41
*1100 FILLER_0_26_53
*1101 FILLER_0_26_65
*1102 FILLER_0_26_77
*1103 FILLER_0_26_83
*1104 FILLER_0_26_85
*1105 FILLER_0_26_97
*1106 FILLER_0_27_105
*1107 FILLER_0_27_111
*1108 FILLER_0_27_113
*1109 FILLER_0_27_125
*1110 FILLER_0_27_137
*1111 FILLER_0_27_149
*1112 FILLER_0_27_15
*1113 FILLER_0_27_161
*1114 FILLER_0_27_167
*1115 FILLER_0_27_169
*1116 FILLER_0_27_181
*1117 FILLER_0_27_193
*1118 FILLER_0_27_205
*1119 FILLER_0_27_217
*1120 FILLER_0_27_223
*1121 FILLER_0_27_225
*1122 FILLER_0_27_237
*1123 FILLER_0_27_249
*1124 FILLER_0_27_261
*1125 FILLER_0_27_27
*1126 FILLER_0_27_273
*1127 FILLER_0_27_279
*1128 FILLER_0_27_281
*1129 FILLER_0_27_293
*1130 FILLER_0_27_3
*1131 FILLER_0_27_305
*1132 FILLER_0_27_317
*1133 FILLER_0_27_329
*1134 FILLER_0_27_335
*1135 FILLER_0_27_337
*1136 FILLER_0_27_349
*1137 FILLER_0_27_361
*1138 FILLER_0_27_373
*1139 FILLER_0_27_385
*1140 FILLER_0_27_389
*1141 FILLER_0_27_39
*1142 FILLER_0_27_393
*1143 FILLER_0_27_401
*1144 FILLER_0_27_51
*1145 FILLER_0_27_55
*1146 FILLER_0_27_57
*1147 FILLER_0_27_69
*1148 FILLER_0_27_81
*1149 FILLER_0_27_93
*1150 FILLER_0_28_109
*1151 FILLER_0_28_121
*1152 FILLER_0_28_133
*1153 FILLER_0_28_139
*1154 FILLER_0_28_141
*1155 FILLER_0_28_15
*1156 FILLER_0_28_153
*1157 FILLER_0_28_165
*1158 FILLER_0_28_177
*1159 FILLER_0_28_189
*1160 FILLER_0_28_195
*1161 FILLER_0_28_197
*1162 FILLER_0_28_209
*1163 FILLER_0_28_221
*1164 FILLER_0_28_233
*1165 FILLER_0_28_245
*1166 FILLER_0_28_251
*1167 FILLER_0_28_253
*1168 FILLER_0_28_265
*1169 FILLER_0_28_27
*1170 FILLER_0_28_277
*1171 FILLER_0_28_289
*1172 FILLER_0_28_29
*1173 FILLER_0_28_3
*1174 FILLER_0_28_301
*1175 FILLER_0_28_307
*1176 FILLER_0_28_309
*1177 FILLER_0_28_321
*1178 FILLER_0_28_333
*1179 FILLER_0_28_345
*1180 FILLER_0_28_357
*1181 FILLER_0_28_363
*1182 FILLER_0_28_365
*1183 FILLER_0_28_377
*1184 FILLER_0_28_389
*1185 FILLER_0_28_397
*1186 FILLER_0_28_401
*1187 FILLER_0_28_41
*1188 FILLER_0_28_53
*1189 FILLER_0_28_65
*1190 FILLER_0_28_77
*1191 FILLER_0_28_83
*1192 FILLER_0_28_85
*1193 FILLER_0_28_97
*1194 FILLER_0_29_105
*1195 FILLER_0_29_111
*1196 FILLER_0_29_113
*1197 FILLER_0_29_125
*1198 FILLER_0_29_137
*1199 FILLER_0_29_149
*1200 FILLER_0_29_15
*1201 FILLER_0_29_161
*1202 FILLER_0_29_167
*1203 FILLER_0_29_169
*1204 FILLER_0_29_181
*1205 FILLER_0_29_193
*1206 FILLER_0_29_205
*1207 FILLER_0_29_217
*1208 FILLER_0_29_223
*1209 FILLER_0_29_225
*1210 FILLER_0_29_237
*1211 FILLER_0_29_249
*1212 FILLER_0_29_261
*1213 FILLER_0_29_27
*1214 FILLER_0_29_273
*1215 FILLER_0_29_279
*1216 FILLER_0_29_281
*1217 FILLER_0_29_293
*1218 FILLER_0_29_3
*1219 FILLER_0_29_305
*1220 FILLER_0_29_317
*1221 FILLER_0_29_329
*1222 FILLER_0_29_335
*1223 FILLER_0_29_337
*1224 FILLER_0_29_349
*1225 FILLER_0_29_361
*1226 FILLER_0_29_373
*1227 FILLER_0_29_385
*1228 FILLER_0_29_39
*1229 FILLER_0_29_391
*1230 FILLER_0_29_393
*1231 FILLER_0_29_397
*1232 FILLER_0_29_51
*1233 FILLER_0_29_55
*1234 FILLER_0_29_57
*1235 FILLER_0_29_69
*1236 FILLER_0_29_81
*1237 FILLER_0_29_93
*1238 FILLER_0_2_109
*1239 FILLER_0_2_121
*1240 FILLER_0_2_133
*1241 FILLER_0_2_139
*1242 FILLER_0_2_141
*1243 FILLER_0_2_15
*1244 FILLER_0_2_153
*1245 FILLER_0_2_165
*1246 FILLER_0_2_177
*1247 FILLER_0_2_189
*1248 FILLER_0_2_195
*1249 FILLER_0_2_197
*1250 FILLER_0_2_209
*1251 FILLER_0_2_221
*1252 FILLER_0_2_233
*1253 FILLER_0_2_245
*1254 FILLER_0_2_251
*1255 FILLER_0_2_253
*1256 FILLER_0_2_265
*1257 FILLER_0_2_27
*1258 FILLER_0_2_277
*1259 FILLER_0_2_289
*1260 FILLER_0_2_29
*1261 FILLER_0_2_3
*1262 FILLER_0_2_301
*1263 FILLER_0_2_307
*1264 FILLER_0_2_309
*1265 FILLER_0_2_321
*1266 FILLER_0_2_333
*1267 FILLER_0_2_345
*1268 FILLER_0_2_357
*1269 FILLER_0_2_363
*1270 FILLER_0_2_365
*1271 FILLER_0_2_377
*1272 FILLER_0_2_389
*1273 FILLER_0_2_401
*1274 FILLER_0_2_41
*1275 FILLER_0_2_53
*1276 FILLER_0_2_65
*1277 FILLER_0_2_77
*1278 FILLER_0_2_83
*1279 FILLER_0_2_85
*1280 FILLER_0_2_97
*1281 FILLER_0_30_109
*1282 FILLER_0_30_121
*1283 FILLER_0_30_133
*1284 FILLER_0_30_139
*1285 FILLER_0_30_141
*1286 FILLER_0_30_15
*1287 FILLER_0_30_153
*1288 FILLER_0_30_165
*1289 FILLER_0_30_177
*1290 FILLER_0_30_189
*1291 FILLER_0_30_195
*1292 FILLER_0_30_197
*1293 FILLER_0_30_209
*1294 FILLER_0_30_221
*1295 FILLER_0_30_233
*1296 FILLER_0_30_245
*1297 FILLER_0_30_251
*1298 FILLER_0_30_253
*1299 FILLER_0_30_265
*1300 FILLER_0_30_27
*1301 FILLER_0_30_277
*1302 FILLER_0_30_289
*1303 FILLER_0_30_29
*1304 FILLER_0_30_3
*1305 FILLER_0_30_301
*1306 FILLER_0_30_307
*1307 FILLER_0_30_309
*1308 FILLER_0_30_321
*1309 FILLER_0_30_333
*1310 FILLER_0_30_345
*1311 FILLER_0_30_357
*1312 FILLER_0_30_363
*1313 FILLER_0_30_365
*1314 FILLER_0_30_377
*1315 FILLER_0_30_389
*1316 FILLER_0_30_397
*1317 FILLER_0_30_401
*1318 FILLER_0_30_41
*1319 FILLER_0_30_53
*1320 FILLER_0_30_65
*1321 FILLER_0_30_77
*1322 FILLER_0_30_83
*1323 FILLER_0_30_85
*1324 FILLER_0_30_97
*1325 FILLER_0_31_105
*1326 FILLER_0_31_111
*1327 FILLER_0_31_113
*1328 FILLER_0_31_125
*1329 FILLER_0_31_137
*1330 FILLER_0_31_149
*1331 FILLER_0_31_15
*1332 FILLER_0_31_161
*1333 FILLER_0_31_167
*1334 FILLER_0_31_169
*1335 FILLER_0_31_181
*1336 FILLER_0_31_193
*1337 FILLER_0_31_205
*1338 FILLER_0_31_217
*1339 FILLER_0_31_223
*1340 FILLER_0_31_225
*1341 FILLER_0_31_237
*1342 FILLER_0_31_249
*1343 FILLER_0_31_261
*1344 FILLER_0_31_27
*1345 FILLER_0_31_273
*1346 FILLER_0_31_279
*1347 FILLER_0_31_281
*1348 FILLER_0_31_293
*1349 FILLER_0_31_3
*1350 FILLER_0_31_305
*1351 FILLER_0_31_317
*1352 FILLER_0_31_329
*1353 FILLER_0_31_335
*1354 FILLER_0_31_337
*1355 FILLER_0_31_349
*1356 FILLER_0_31_361
*1357 FILLER_0_31_373
*1358 FILLER_0_31_385
*1359 FILLER_0_31_39
*1360 FILLER_0_31_391
*1361 FILLER_0_31_393
*1362 FILLER_0_31_397
*1363 FILLER_0_31_51
*1364 FILLER_0_31_55
*1365 FILLER_0_31_57
*1366 FILLER_0_31_69
*1367 FILLER_0_31_81
*1368 FILLER_0_31_93
*1369 FILLER_0_32_109
*1370 FILLER_0_32_121
*1371 FILLER_0_32_133
*1372 FILLER_0_32_139
*1373 FILLER_0_32_141
*1374 FILLER_0_32_15
*1375 FILLER_0_32_153
*1376 FILLER_0_32_165
*1377 FILLER_0_32_177
*1378 FILLER_0_32_189
*1379 FILLER_0_32_195
*1380 FILLER_0_32_197
*1381 FILLER_0_32_209
*1382 FILLER_0_32_221
*1383 FILLER_0_32_233
*1384 FILLER_0_32_245
*1385 FILLER_0_32_251
*1386 FILLER_0_32_253
*1387 FILLER_0_32_265
*1388 FILLER_0_32_27
*1389 FILLER_0_32_277
*1390 FILLER_0_32_289
*1391 FILLER_0_32_29
*1392 FILLER_0_32_3
*1393 FILLER_0_32_301
*1394 FILLER_0_32_307
*1395 FILLER_0_32_309
*1396 FILLER_0_32_321
*1397 FILLER_0_32_333
*1398 FILLER_0_32_345
*1399 FILLER_0_32_357
*1400 FILLER_0_32_363
*1401 FILLER_0_32_365
*1402 FILLER_0_32_377
*1403 FILLER_0_32_389
*1404 FILLER_0_32_397
*1405 FILLER_0_32_41
*1406 FILLER_0_32_53
*1407 FILLER_0_32_65
*1408 FILLER_0_32_77
*1409 FILLER_0_32_83
*1410 FILLER_0_32_85
*1411 FILLER_0_32_97
*1412 FILLER_0_33_105
*1413 FILLER_0_33_111
*1414 FILLER_0_33_113
*1415 FILLER_0_33_12
*1416 FILLER_0_33_125
*1417 FILLER_0_33_137
*1418 FILLER_0_33_149
*1419 FILLER_0_33_161
*1420 FILLER_0_33_167
*1421 FILLER_0_33_169
*1422 FILLER_0_33_181
*1423 FILLER_0_33_193
*1424 FILLER_0_33_205
*1425 FILLER_0_33_217
*1426 FILLER_0_33_223
*1427 FILLER_0_33_225
*1428 FILLER_0_33_237
*1429 FILLER_0_33_24
*1430 FILLER_0_33_249
*1431 FILLER_0_33_261
*1432 FILLER_0_33_273
*1433 FILLER_0_33_279
*1434 FILLER_0_33_281
*1435 FILLER_0_33_293
*1436 FILLER_0_33_305
*1437 FILLER_0_33_317
*1438 FILLER_0_33_329
*1439 FILLER_0_33_335
*1440 FILLER_0_33_337
*1441 FILLER_0_33_349
*1442 FILLER_0_33_36
*1443 FILLER_0_33_361
*1444 FILLER_0_33_373
*1445 FILLER_0_33_385
*1446 FILLER_0_33_391
*1447 FILLER_0_33_393
*1448 FILLER_0_33_48
*1449 FILLER_0_33_57
*1450 FILLER_0_33_69
*1451 FILLER_0_33_81
*1452 FILLER_0_33_93
*1453 FILLER_0_34_109
*1454 FILLER_0_34_121
*1455 FILLER_0_34_133
*1456 FILLER_0_34_139
*1457 FILLER_0_34_141
*1458 FILLER_0_34_15
*1459 FILLER_0_34_153
*1460 FILLER_0_34_165
*1461 FILLER_0_34_177
*1462 FILLER_0_34_189
*1463 FILLER_0_34_195
*1464 FILLER_0_34_197
*1465 FILLER_0_34_209
*1466 FILLER_0_34_221
*1467 FILLER_0_34_233
*1468 FILLER_0_34_245
*1469 FILLER_0_34_251
*1470 FILLER_0_34_253
*1471 FILLER_0_34_265
*1472 FILLER_0_34_27
*1473 FILLER_0_34_277
*1474 FILLER_0_34_289
*1475 FILLER_0_34_29
*1476 FILLER_0_34_3
*1477 FILLER_0_34_301
*1478 FILLER_0_34_307
*1479 FILLER_0_34_309