*SPEF "ieee 1481-1999"
*DESIGN "encoder_proj"
*DATE "11:11:11 Fri 11 11, 1111"
*VENDOR "OpenRCX"
*PROGRAM "Parallel Extraction"
*VERSION "1.0"
*DESIGN_FLOW "NAME_SCOPE LOCAL" "PIN_CAP NONE"
*DIVIDER /
*DELIMITER :
*BUS_DELIMITER []
*T_UNIT 1 NS
*C_UNIT 1 PF
*R_UNIT 1 OHM
*L_UNIT 1 HENRY

*NAME_MAP
*1 io_in[0]
*2 io_in[10]
*3 io_in[11]
*4 io_in[12]
*5 io_in[13]
*6 io_in[14]
*7 io_in[15]
*8 io_in[16]
*9 io_in[17]
*10 io_in[18]
*11 io_in[19]
*12 io_in[1]
*13 io_in[20]
*14 io_in[21]
*15 io_in[22]
*16 io_in[23]
*17 io_in[24]
*18 io_in[25]
*19 io_in[26]
*20 io_in[27]
*21 io_in[28]
*22 io_in[29]
*23 io_in[2]
*24 io_in[30]
*25 io_in[31]
*26 io_in[32]
*27 io_in[33]
*28 io_in[34]
*29 io_in[35]
*30 io_in[36]
*31 io_in[37]
*32 io_in[38]
*33 io_in[39]
*34 io_in[3]
*35 io_in[40]
*36 io_in[41]
*37 io_in[42]
*38 io_in[43]
*39 io_in[44]
*40 io_in[45]
*41 io_in[46]
*42 io_in[47]
*43 io_in[48]
*44 io_in[49]
*45 io_in[4]
*46 io_in[50]
*47 io_in[51]
*48 io_in[52]
*49 io_in[53]
*50 io_in[54]
*51 io_in[55]
*52 io_in[56]
*53 io_in[57]
*54 io_in[58]
*55 io_in[59]
*56 io_in[5]
*57 io_in[60]
*58 io_in[61]
*59 io_in[62]
*60 io_in[63]
*61 io_in[6]
*62 io_in[7]
*63 io_in[8]
*64 io_in[9]
*65 io_out[0]
*66 io_out[1]
*67 io_out[2]
*68 io_out[3]
*69 io_out[4]
*70 io_out[5]
*71 valid
*74 _000_
*75 _001_
*76 _002_
*77 _003_
*78 _004_
*79 _005_
*80 _006_
*81 _007_
*82 _008_
*83 _009_
*84 _010_
*85 _011_
*86 _012_
*87 _013_
*88 _014_
*89 _015_
*90 _016_
*91 _017_
*92 _018_
*93 _019_
*94 _020_
*95 _021_
*96 _022_
*97 _023_
*98 _024_
*99 _025_
*100 _026_
*101 _027_
*102 _028_
*103 _029_
*104 _030_
*105 _031_
*106 _032_
*107 _033_
*108 _034_
*109 _035_
*110 _036_
*111 _037_
*112 _038_
*113 _039_
*114 _040_
*115 _041_
*116 _042_
*117 _043_
*118 _044_
*119 _045_
*120 _046_
*121 _047_
*122 _048_
*123 _049_
*124 _050_
*125 _051_
*126 _052_
*127 _053_
*128 _054_
*129 _055_
*130 _056_
*131 _057_
*132 _058_
*133 _059_
*134 _060_
*135 _061_
*136 _062_
*137 _063_
*138 _064_
*139 _065_
*140 _066_
*141 _067_
*142 _068_
*143 _069_
*144 _070_
*145 _071_
*146 _072_
*147 _073_
*148 _074_
*149 _075_
*150 _076_
*151 _077_
*152 _078_
*153 _079_
*154 _080_
*155 _081_
*156 _082_
*157 _083_
*158 _084_
*159 _085_
*160 _086_
*161 _087_
*162 _088_
*163 _089_
*164 _090_
*165 _091_
*166 _092_
*167 _093_
*168 _094_
*169 _095_
*170 _096_
*171 net1
*172 net10
*173 net11
*174 net12
*175 net13
*176 net14
*177 net15
*178 net16
*179 net17
*180 net18
*181 net19
*182 net2
*183 net20
*184 net21
*185 net22
*186 net23
*187 net24
*188 net25
*189 net26
*190 net27
*191 net28
*192 net29
*193 net3
*194 net30
*195 net31
*196 net32
*197 net33
*198 net34
*199 net35
*200 net36
*201 net37
*202 net38
*203 net39
*204 net4
*205 net40
*206 net41
*207 net42
*208 net43
*209 net44
*210 net45
*211 net46
*212 net47
*213 net48
*214 net49
*215 net5
*216 net50
*217 net51
*218 net52
*219 net53
*220 net54
*221 net55
*222 net56
*223 net57
*224 net58
*225 net59
*226 net6
*227 net60
*228 net61
*229 net62
*230 net63
*231 net64
*232 net65
*233 net66
*234 net67
*235 net68
*236 net69
*237 net7
*238 net70
*239 net71
*240 net8
*241 net9
*242 ANTENNA__146__B
*243 ANTENNA_output65_A
*244 ANTENNA_output66_A
*245 ANTENNA_output67_A
*246 ANTENNA_output68_A
*247 ANTENNA_output69_A
*248 ANTENNA_output70_A
*249 ANTENNA_output71_A
*250 FILLER_0_0_109
*251 FILLER_0_0_113
*252 FILLER_0_0_125
*253 FILLER_0_0_137
*254 FILLER_0_0_141
*255 FILLER_0_0_15
*256 FILLER_0_0_153
*257 FILLER_0_0_165
*258 FILLER_0_0_169
*259 FILLER_0_0_181
*260 FILLER_0_0_193
*261 FILLER_0_0_197
*262 FILLER_0_0_209
*263 FILLER_0_0_221
*264 FILLER_0_0_225
*265 FILLER_0_0_237
*266 FILLER_0_0_249
*267 FILLER_0_0_253
*268 FILLER_0_0_265
*269 FILLER_0_0_27
*270 FILLER_0_0_277
*271 FILLER_0_0_281
*272 FILLER_0_0_29
*273 FILLER_0_0_293
*274 FILLER_0_0_3
*275 FILLER_0_0_305
*276 FILLER_0_0_309
*277 FILLER_0_0_321
*278 FILLER_0_0_333
*279 FILLER_0_0_337
*280 FILLER_0_0_349
*281 FILLER_0_0_361
*282 FILLER_0_0_365
*283 FILLER_0_0_377
*284 FILLER_0_0_389
*285 FILLER_0_0_393
*286 FILLER_0_0_405
*287 FILLER_0_0_41
*288 FILLER_0_0_53
*289 FILLER_0_0_57
*290 FILLER_0_0_69
*291 FILLER_0_0_81
*292 FILLER_0_0_85
*293 FILLER_0_0_97
*294 FILLER_0_10_109
*295 FILLER_0_10_121
*296 FILLER_0_10_133
*297 FILLER_0_10_139
*298 FILLER_0_10_141
*299 FILLER_0_10_15
*300 FILLER_0_10_153
*301 FILLER_0_10_165
*302 FILLER_0_10_177
*303 FILLER_0_10_189
*304 FILLER_0_10_195
*305 FILLER_0_10_197
*306 FILLER_0_10_209
*307 FILLER_0_10_221
*308 FILLER_0_10_233
*309 FILLER_0_10_245
*310 FILLER_0_10_251
*311 FILLER_0_10_253
*312 FILLER_0_10_265
*313 FILLER_0_10_27
*314 FILLER_0_10_277
*315 FILLER_0_10_289
*316 FILLER_0_10_29
*317 FILLER_0_10_301
*318 FILLER_0_10_307
*319 FILLER_0_10_309
*320 FILLER_0_10_321
*321 FILLER_0_10_333
*322 FILLER_0_10_345
*323 FILLER_0_10_357
*324 FILLER_0_10_363
*325 FILLER_0_10_365
*326 FILLER_0_10_377
*327 FILLER_0_10_389
*328 FILLER_0_10_401
*329 FILLER_0_10_41
*330 FILLER_0_10_53
*331 FILLER_0_10_6
*332 FILLER_0_10_65
*333 FILLER_0_10_77
*334 FILLER_0_10_83
*335 FILLER_0_10_85
*336 FILLER_0_10_97
*337 FILLER_0_11_105
*338 FILLER_0_11_111
*339 FILLER_0_11_113
*340 FILLER_0_11_125
*341 FILLER_0_11_137
*342 FILLER_0_11_149
*343 FILLER_0_11_161
*344 FILLER_0_11_167
*345 FILLER_0_11_169
*346 FILLER_0_11_181
*347 FILLER_0_11_193
*348 FILLER_0_11_20
*349 FILLER_0_11_205
*350 FILLER_0_11_217
*351 FILLER_0_11_223
*352 FILLER_0_11_225
*353 FILLER_0_11_237
*354 FILLER_0_11_249
*355 FILLER_0_11_261
*356 FILLER_0_11_273
*357 FILLER_0_11_279
*358 FILLER_0_11_281
*359 FILLER_0_11_293
*360 FILLER_0_11_3
*361 FILLER_0_11_305
*362 FILLER_0_11_317
*363 FILLER_0_11_32
*364 FILLER_0_11_329
*365 FILLER_0_11_335
*366 FILLER_0_11_337
*367 FILLER_0_11_349
*368 FILLER_0_11_361
*369 FILLER_0_11_373
*370 FILLER_0_11_385
*371 FILLER_0_11_391
*372 FILLER_0_11_393
*373 FILLER_0_11_405
*374 FILLER_0_11_44
*375 FILLER_0_11_57
*376 FILLER_0_11_69
*377 FILLER_0_11_81
*378 FILLER_0_11_93
*379 FILLER_0_12_109
*380 FILLER_0_12_121
*381 FILLER_0_12_13
*382 FILLER_0_12_133
*383 FILLER_0_12_139
*384 FILLER_0_12_141
*385 FILLER_0_12_153
*386 FILLER_0_12_165
*387 FILLER_0_12_177
*388 FILLER_0_12_189
*389 FILLER_0_12_195
*390 FILLER_0_12_197
*391 FILLER_0_12_209
*392 FILLER_0_12_221
*393 FILLER_0_12_233
*394 FILLER_0_12_245
*395 FILLER_0_12_25
*396 FILLER_0_12_251
*397 FILLER_0_12_253
*398 FILLER_0_12_265
*399 FILLER_0_12_277
*400 FILLER_0_12_289
*401 FILLER_0_12_29
*402 FILLER_0_12_301
*403 FILLER_0_12_307
*404 FILLER_0_12_309
*405 FILLER_0_12_321
*406 FILLER_0_12_333
*407 FILLER_0_12_345
*408 FILLER_0_12_357
*409 FILLER_0_12_363
*410 FILLER_0_12_365
*411 FILLER_0_12_377
*412 FILLER_0_12_389
*413 FILLER_0_12_397
*414 FILLER_0_12_41
*415 FILLER_0_12_53
*416 FILLER_0_12_6
*417 FILLER_0_12_65
*418 FILLER_0_12_77
*419 FILLER_0_12_83
*420 FILLER_0_12_85
*421 FILLER_0_12_97
*422 FILLER_0_13_105
*423 FILLER_0_13_111
*424 FILLER_0_13_113
*425 FILLER_0_13_125
*426 FILLER_0_13_137
*427 FILLER_0_13_14
*428 FILLER_0_13_149
*429 FILLER_0_13_161
*430 FILLER_0_13_167
*431 FILLER_0_13_169
*432 FILLER_0_13_181
*433 FILLER_0_13_193
*434 FILLER_0_13_205
*435 FILLER_0_13_217
*436 FILLER_0_13_22
*437 FILLER_0_13_223
*438 FILLER_0_13_225
*439 FILLER_0_13_237
*440 FILLER_0_13_249
*441 FILLER_0_13_261
*442 FILLER_0_13_273
*443 FILLER_0_13_279
*444 FILLER_0_13_281
*445 FILLER_0_13_293
*446 FILLER_0_13_305
*447 FILLER_0_13_317
*448 FILLER_0_13_329
*449 FILLER_0_13_335
*450 FILLER_0_13_337
*451 FILLER_0_13_34
*452 FILLER_0_13_349
*453 FILLER_0_13_361
*454 FILLER_0_13_373
*455 FILLER_0_13_385
*456 FILLER_0_13_391
*457 FILLER_0_13_393
*458 FILLER_0_13_405
*459 FILLER_0_13_46
*460 FILLER_0_13_54
*461 FILLER_0_13_57
*462 FILLER_0_13_69
*463 FILLER_0_13_81
*464 FILLER_0_13_93
*465 FILLER_0_14_109
*466 FILLER_0_14_121
*467 FILLER_0_14_13
*468 FILLER_0_14_133
*469 FILLER_0_14_139
*470 FILLER_0_14_141
*471 FILLER_0_14_153
*472 FILLER_0_14_165
*473 FILLER_0_14_177
*474 FILLER_0_14_189
*475 FILLER_0_14_195
*476 FILLER_0_14_197
*477 FILLER_0_14_209
*478 FILLER_0_14_221
*479 FILLER_0_14_233
*480 FILLER_0_14_245
*481 FILLER_0_14_251
*482 FILLER_0_14_253
*483 FILLER_0_14_26
*484 FILLER_0_14_265
*485 FILLER_0_14_277
*486 FILLER_0_14_289
*487 FILLER_0_14_29
*488 FILLER_0_14_301
*489 FILLER_0_14_307
*490 FILLER_0_14_309
*491 FILLER_0_14_321
*492 FILLER_0_14_333
*493 FILLER_0_14_345
*494 FILLER_0_14_357
*495 FILLER_0_14_363
*496 FILLER_0_14_365
*497 FILLER_0_14_377
*498 FILLER_0_14_389
*499 FILLER_0_14_401
*500 FILLER_0_14_41
*501 FILLER_0_14_53
*502 FILLER_0_14_6
*503 FILLER_0_14_65
*504 FILLER_0_14_77
*505 FILLER_0_14_83
*506 FILLER_0_14_85
*507 FILLER_0_14_97
*508 FILLER_0_15_105
*509 FILLER_0_15_111
*510 FILLER_0_15_113
*511 FILLER_0_15_125
*512 FILLER_0_15_13
*513 FILLER_0_15_137
*514 FILLER_0_15_149
*515 FILLER_0_15_161
*516 FILLER_0_15_167
*517 FILLER_0_15_169
*518 FILLER_0_15_181
*519 FILLER_0_15_193
*520 FILLER_0_15_205
*521 FILLER_0_15_217
*522 FILLER_0_15_223
*523 FILLER_0_15_225
*524 FILLER_0_15_237
*525 FILLER_0_15_249
*526 FILLER_0_15_25
*527 FILLER_0_15_261
*528 FILLER_0_15_273
*529 FILLER_0_15_279
*530 FILLER_0_15_281
*531 FILLER_0_15_293
*532 FILLER_0_15_3
*533 FILLER_0_15_305
*534 FILLER_0_15_317
*535 FILLER_0_15_329
*536 FILLER_0_15_335
*537 FILLER_0_15_337
*538 FILLER_0_15_349
*539 FILLER_0_15_361
*540 FILLER_0_15_37
*541 FILLER_0_15_373
*542 FILLER_0_15_385
*543 FILLER_0_15_391
*544 FILLER_0_15_393
*545 FILLER_0_15_405
*546 FILLER_0_15_49
*547 FILLER_0_15_55
*548 FILLER_0_15_57
*549 FILLER_0_15_69
*550 FILLER_0_15_81
*551 FILLER_0_15_93
*552 FILLER_0_16_109
*553 FILLER_0_16_121
*554 FILLER_0_16_133
*555 FILLER_0_16_139
*556 FILLER_0_16_141
*557 FILLER_0_16_15
*558 FILLER_0_16_153
*559 FILLER_0_16_165
*560 FILLER_0_16_177
*561 FILLER_0_16_189
*562 FILLER_0_16_195
*563 FILLER_0_16_197
*564 FILLER_0_16_209
*565 FILLER_0_16_221
*566 FILLER_0_16_233
*567 FILLER_0_16_245
*568 FILLER_0_16_251
*569 FILLER_0_16_253
*570 FILLER_0_16_265
*571 FILLER_0_16_27
*572 FILLER_0_16_277
*573 FILLER_0_16_289
*574 FILLER_0_16_29
*575 FILLER_0_16_3
*576 FILLER_0_16_301
*577 FILLER_0_16_307
*578 FILLER_0_16_309
*579 FILLER_0_16_321
*580 FILLER_0_16_333
*581 FILLER_0_16_345
*582 FILLER_0_16_357
*583 FILLER_0_16_363
*584 FILLER_0_16_365
*585 FILLER_0_16_377
*586 FILLER_0_16_389
*587 FILLER_0_16_401
*588 FILLER_0_16_41
*589 FILLER_0_16_53
*590 FILLER_0_16_65
*591 FILLER_0_16_77
*592 FILLER_0_16_83
*593 FILLER_0_16_85
*594 FILLER_0_16_97
*595 FILLER_0_17_105
*596 FILLER_0_17_111
*597 FILLER_0_17_113
*598 FILLER_0_17_125
*599 FILLER_0_17_13
*600 FILLER_0_17_137
*601 FILLER_0_17_149
*602 FILLER_0_17_161
*603 FILLER_0_17_167
*604 FILLER_0_17_169
*605 FILLER_0_17_181
*606 FILLER_0_17_193
*607 FILLER_0_17_205
*608 FILLER_0_17_217
*609 FILLER_0_17_223
*610 FILLER_0_17_225
*611 FILLER_0_17_237
*612 FILLER_0_17_249
*613 FILLER_0_17_25
*614 FILLER_0_17_261
*615 FILLER_0_17_273
*616 FILLER_0_17_279
*617 FILLER_0_17_281
*618 FILLER_0_17_293
*619 FILLER_0_17_305
*620 FILLER_0_17_317
*621 FILLER_0_17_329
*622 FILLER_0_17_335
*623 FILLER_0_17_337
*624 FILLER_0_17_349
*625 FILLER_0_17_361
*626 FILLER_0_17_37
*627 FILLER_0_17_373
*628 FILLER_0_17_385
*629 FILLER_0_17_391
*630 FILLER_0_17_393
*631 FILLER_0_17_405
*632 FILLER_0_17_49
*633 FILLER_0_17_55
*634 FILLER_0_17_57
*635 FILLER_0_17_6
*636 FILLER_0_17_69
*637 FILLER_0_17_81
*638 FILLER_0_17_93
*639 FILLER_0_18_109
*640 FILLER_0_18_121
*641 FILLER_0_18_13
*642 FILLER_0_18_133
*643 FILLER_0_18_139
*644 FILLER_0_18_141
*645 FILLER_0_18_153
*646 FILLER_0_18_165
*647 FILLER_0_18_177
*648 FILLER_0_18_189
*649 FILLER_0_18_195
*650 FILLER_0_18_197
*651 FILLER_0_18_209
*652 FILLER_0_18_221
*653 FILLER_0_18_233
*654 FILLER_0_18_245
*655 FILLER_0_18_25
*656 FILLER_0_18_251
*657 FILLER_0_18_253
*658 FILLER_0_18_265
*659 FILLER_0_18_277
*660 FILLER_0_18_289
*661 FILLER_0_18_29
*662 FILLER_0_18_3
*663 FILLER_0_18_301
*664 FILLER_0_18_307
*665 FILLER_0_18_309
*666 FILLER_0_18_321
*667 FILLER_0_18_333
*668 FILLER_0_18_345
*669 FILLER_0_18_357
*670 FILLER_0_18_363
*671 FILLER_0_18_365
*672 FILLER_0_18_377
*673 FILLER_0_18_389
*674 FILLER_0_18_401
*675 FILLER_0_18_41
*676 FILLER_0_18_53
*677 FILLER_0_18_65
*678 FILLER_0_18_77
*679 FILLER_0_18_83
*680 FILLER_0_18_85
*681 FILLER_0_18_97
*682 FILLER_0_19_105
*683 FILLER_0_19_111
*684 FILLER_0_19_113
*685 FILLER_0_19_125
*686 FILLER_0_19_137
*687 FILLER_0_19_149
*688 FILLER_0_19_161
*689 FILLER_0_19_167
*690 FILLER_0_19_169
*691 FILLER_0_19_181
*692 FILLER_0_19_193
*693 FILLER_0_19_205
*694 FILLER_0_19_217
*695 FILLER_0_19_22
*696 FILLER_0_19_223
*697 FILLER_0_19_225
*698 FILLER_0_19_237
*699 FILLER_0_19_249
*700 FILLER_0_19_261
*701 FILLER_0_19_273
*702 FILLER_0_19_279
*703 FILLER_0_19_281
*704 FILLER_0_19_293
*705 FILLER_0_19_3
*706 FILLER_0_19_305
*707 FILLER_0_19_317
*708 FILLER_0_19_329
*709 FILLER_0_19_335
*710 FILLER_0_19_337
*711 FILLER_0_19_34
*712 FILLER_0_19_349
*713 FILLER_0_19_361
*714 FILLER_0_19_373
*715 FILLER_0_19_385
*716 FILLER_0_19_391
*717 FILLER_0_19_393
*718 FILLER_0_19_405
*719 FILLER_0_19_46
*720 FILLER_0_19_54
*721 FILLER_0_19_57
*722 FILLER_0_19_69
*723 FILLER_0_19_81
*724 FILLER_0_19_93
*725 FILLER_0_1_105
*726 FILLER_0_1_111
*727 FILLER_0_1_113
*728 FILLER_0_1_125
*729 FILLER_0_1_137
*730 FILLER_0_1_149
*731 FILLER_0_1_161
*732 FILLER_0_1_167
*733 FILLER_0_1_169
*734 FILLER_0_1_18
*735 FILLER_0_1_181
*736 FILLER_0_1_193
*737 FILLER_0_1_205
*738 FILLER_0_1_217
*739 FILLER_0_1_223
*740 FILLER_0_1_225
*741 FILLER_0_1_237
*742 FILLER_0_1_249
*743 FILLER_0_1_261
*744 FILLER_0_1_273
*745 FILLER_0_1_279
*746 FILLER_0_1_281
*747 FILLER_0_1_293
*748 FILLER_0_1_30
*749 FILLER_0_1_305
*750 FILLER_0_1_317
*751 FILLER_0_1_329
*752 FILLER_0_1_335
*753 FILLER_0_1_337
*754 FILLER_0_1_349
*755 FILLER_0_1_361
*756 FILLER_0_1_373
*757 FILLER_0_1_385
*758 FILLER_0_1_391
*759 FILLER_0_1_393
*760 FILLER_0_1_42
*761 FILLER_0_1_54
*762 FILLER_0_1_57
*763 FILLER_0_1_6
*764 FILLER_0_1_69
*765 FILLER_0_1_81
*766 FILLER_0_1_93
*767 FILLER_0_20_109
*768 FILLER_0_20_121
*769 FILLER_0_20_133
*770 FILLER_0_20_139
*771 FILLER_0_20_141
*772 FILLER_0_20_15
*773 FILLER_0_20_153
*774 FILLER_0_20_165
*775 FILLER_0_20_177
*776 FILLER_0_20_189
*777 FILLER_0_20_195
*778 FILLER_0_20_197
*779 FILLER_0_20_209
*780 FILLER_0_20_221
*781 FILLER_0_20_233
*782 FILLER_0_20_245
*783 FILLER_0_20_251
*784 FILLER_0_20_253
*785 FILLER_0_20_265
*786 FILLER_0_20_27
*787 FILLER_0_20_277
*788 FILLER_0_20_289
*789 FILLER_0_20_29
*790 FILLER_0_20_3
*791 FILLER_0_20_301
*792 FILLER_0_20_307
*793 FILLER_0_20_309
*794 FILLER_0_20_321
*795 FILLER_0_20_333
*796 FILLER_0_20_345
*797 FILLER_0_20_357
*798 FILLER_0_20_363
*799 FILLER_0_20_365
*800 FILLER_0_20_377
*801 FILLER_0_20_389
*802 FILLER_0_20_401
*803 FILLER_0_20_41
*804 FILLER_0_20_53
*805 FILLER_0_20_65
*806 FILLER_0_20_77
*807 FILLER_0_20_83
*808 FILLER_0_20_85
*809 FILLER_0_20_97
*810 FILLER_0_21_105
*811 FILLER_0_21_111
*812 FILLER_0_21_113
*813 FILLER_0_21_125
*814 FILLER_0_21_137
*815 FILLER_0_21_149
*816 FILLER_0_21_161
*817 FILLER_0_21_167
*818 FILLER_0_21_169
*819 FILLER_0_21_181
*820 FILLER_0_21_19
*821 FILLER_0_21_193
*822 FILLER_0_21_205
*823 FILLER_0_21_217
*824 FILLER_0_21_223
*825 FILLER_0_21_225
*826 FILLER_0_21_237
*827 FILLER_0_21_249
*828 FILLER_0_21_261
*829 FILLER_0_21_273
*830 FILLER_0_21_279
*831 FILLER_0_21_281
*832 FILLER_0_21_293
*833 FILLER_0_21_3
*834 FILLER_0_21_305
*835 FILLER_0_21_31
*836 FILLER_0_21_317
*837 FILLER_0_21_329
*838 FILLER_0_21_335
*839 FILLER_0_21_337
*840 FILLER_0_21_349
*841 FILLER_0_21_361
*842 FILLER_0_21_373
*843 FILLER_0_21_385
*844 FILLER_0_21_391
*845 FILLER_0_21_393
*846 FILLER_0_21_405
*847 FILLER_0_21_43
*848 FILLER_0_21_55
*849 FILLER_0_21_57
*850 FILLER_0_21_69
*851 FILLER_0_21_81
*852 FILLER_0_21_93
*853 FILLER_0_22_109
*854 FILLER_0_22_121
*855 FILLER_0_22_133
*856 FILLER_0_22_139
*857 FILLER_0_22_141
*858 FILLER_0_22_153
*859 FILLER_0_22_165
*860 FILLER_0_22_177
*861 FILLER_0_22_189
*862 FILLER_0_22_195
*863 FILLER_0_22_197
*864 FILLER_0_22_209
*865 FILLER_0_22_21
*866 FILLER_0_22_221
*867 FILLER_0_22_233
*868 FILLER_0_22_245
*869 FILLER_0_22_251
*870 FILLER_0_22_253
*871 FILLER_0_22_265
*872 FILLER_0_22_27
*873 FILLER_0_22_277
*874 FILLER_0_22_289
*875 FILLER_0_22_29
*876 FILLER_0_22_3
*877 FILLER_0_22_301
*878 FILLER_0_22_307
*879 FILLER_0_22_309
*880 FILLER_0_22_321
*881 FILLER_0_22_333
*882 FILLER_0_22_345
*883 FILLER_0_22_357
*884 FILLER_0_22_363
*885 FILLER_0_22_365
*886 FILLER_0_22_377
*887 FILLER_0_22_389
*888 FILLER_0_22_41
*889 FILLER_0_22_53
*890 FILLER_0_22_65
*891 FILLER_0_22_77
*892 FILLER_0_22_83
*893 FILLER_0_22_85
*894 FILLER_0_22_97
*895 FILLER_0_23_105
*896 FILLER_0_23_111
*897 FILLER_0_23_113
*898 FILLER_0_23_125
*899 FILLER_0_23_137
*900 FILLER_0_23_149
*901 FILLER_0_23_161
*902 FILLER_0_23_167
*903 FILLER_0_23_169
*904 FILLER_0_23_181
*905 FILLER_0_23_193
*906 FILLER_0_23_205
*907 FILLER_0_23_217
*908 FILLER_0_23_223
*909 FILLER_0_23_225
*910 FILLER_0_23_237
*911 FILLER_0_23_24
*912 FILLER_0_23_249
*913 FILLER_0_23_261
*914 FILLER_0_23_273
*915 FILLER_0_23_279
*916 FILLER_0_23_281
*917 FILLER_0_23_293
*918 FILLER_0_23_3
*919 FILLER_0_23_305
*920 FILLER_0_23_317
*921 FILLER_0_23_329
*922 FILLER_0_23_335
*923 FILLER_0_23_337
*924 FILLER_0_23_349
*925 FILLER_0_23_36
*926 FILLER_0_23_361
*927 FILLER_0_23_373
*928 FILLER_0_23_385
*929 FILLER_0_23_391
*930 FILLER_0_23_393
*931 FILLER_0_23_405
*932 FILLER_0_23_48
*933 FILLER_0_23_57
*934 FILLER_0_23_69
*935 FILLER_0_23_81
*936 FILLER_0_23_93
*937 FILLER_0_24_109
*938 FILLER_0_24_121
*939 FILLER_0_24_133
*940 FILLER_0_24_139
*941 FILLER_0_24_141
*942 FILLER_0_24_153
*943 FILLER_0_24_165
*944 FILLER_0_24_177
*945 FILLER_0_24_189
*946 FILLER_0_24_195
*947 FILLER_0_24_197
*948 FILLER_0_24_209
*949 FILLER_0_24_21
*950 FILLER_0_24_221
*951 FILLER_0_24_233
*952 FILLER_0_24_245
*953 FILLER_0_24_251
*954 FILLER_0_24_253
*955 FILLER_0_24_265
*956 FILLER_0_24_27
*957 FILLER_0_24_277
*958 FILLER_0_24_289
*959 FILLER_0_24_29
*960 FILLER_0_24_301
*961 FILLER_0_24_307
*962 FILLER_0_24_309
*963 FILLER_0_24_321
*964 FILLER_0_24_333
*965 FILLER_0_24_345
*966 FILLER_0_24_357
*967 FILLER_0_24_363
*968 FILLER_0_24_365
*969 FILLER_0_24_377
*970 FILLER_0_24_389
*971 FILLER_0_24_401
*972 FILLER_0_24_41
*973 FILLER_0_24_53
*974 FILLER_0_24_65
*975 FILLER_0_24_77
*976 FILLER_0_24_83
*977 FILLER_0_24_85
*978 FILLER_0_24_9
*979 FILLER_0_24_97
*980 FILLER_0_25_105
*981 FILLER_0_25_111
*982 FILLER_0_25_113
*983 FILLER_0_25_125
*984 FILLER_0_25_137
*985 FILLER_0_25_149
*986 FILLER_0_25_16
*987 FILLER_0_25_161
*988 FILLER_0_25_167
*989 FILLER_0_25_169
*990 FILLER_0_25_181
*991 FILLER_0_25_193
*992 FILLER_0_25_205
*993 FILLER_0_25_217
*994 FILLER_0_25_223
*995 FILLER_0_25_225
*996 FILLER_0_25_237
*997 FILLER_0_25_249
*998 FILLER_0_25_25
*999 FILLER_0_25_261
*1000 FILLER_0_25_273
*1001 FILLER_0_25_279
*1002 FILLER_0_25_281
*1003 FILLER_0_25_293
*1004 FILLER_0_25_3
*1005 FILLER_0_25_305
*1006 FILLER_0_25_317
*1007 FILLER_0_25_329
*1008 FILLER_0_25_335
*1009 FILLER_0_25_337
*1010 FILLER_0_25_349
*1011 FILLER_0_25_361
*1012 FILLER_0_25_37
*1013 FILLER_0_25_373
*1014 FILLER_0_25_385
*1015 FILLER_0_25_391
*1016 FILLER_0_25_393
*1017 FILLER_0_25_405
*1018 FILLER_0_25_49
*1019 FILLER_0_25_55
*1020 FILLER_0_25_57
*1021 FILLER_0_25_69
*1022 FILLER_0_25_81
*1023 FILLER_0_25_93
*1024 FILLER_0_26_109
*1025 FILLER_0_26_121
*1026 FILLER_0_26_133
*1027 FILLER_0_26_139
*1028 FILLER_0_26_141
*1029 FILLER_0_26_153
*1030 FILLER_0_26_165
*1031 FILLER_0_26_177
*1032 FILLER_0_26_189
*1033 FILLER_0_26_195
*1034 FILLER_0_26_197
*1035 FILLER_0_26_209
*1036 FILLER_0_26_221
*1037 FILLER_0_26_233
*1038 FILLER_0_26_245
*1039 FILLER_0_26_251
*1040 FILLER_0_26_253
*1041 FILLER_0_26_265
*1042 FILLER_0_26_277
*1043 FILLER_0_26_289
*1044 FILLER_0_26_29
*1045 FILLER_0_26_301
*1046 FILLER_0_26_307
*1047 FILLER_0_26_309
*1048 FILLER_0_26_321
*1049 FILLER_0_26_333
*1050 FILLER_0_26_345
*1051 FILLER_0_26_357
*1052 FILLER_0_26_363
*1053 FILLER_0_26_365
*1054 FILLER_0_26_377
*1055 FILLER_0_26_389
*1056 FILLER_0_26_401
*1057 FILLER_0_26_41
*1058 FILLER_0_26_53
*1059 FILLER_0_26_6
*1060 FILLER_0_26_65
*1061 FILLER_0_26_77
*1062 FILLER_0_26_83
*1063 FILLER_0_26_85
*1064 FILLER_0_26_97
*1065 FILLER_0_27_105
*1066 FILLER_0_27_111
*1067 FILLER_0_27_113
*1068 FILLER_0_27_125
*1069 FILLER_0_27_137
*1070 FILLER_0_27_149
*1071 FILLER_0_27_161
*1072 FILLER_0_27_167
*1073 FILLER_0_27_169
*1074 FILLER_0_27_181
*1075 FILLER_0_27_193
*1076 FILLER_0_27_205
*1077 FILLER_0_27_21
*1078 FILLER_0_27_217
*1079 FILLER_0_27_223
*1080 FILLER_0_27_225
*1081 FILLER_0_27_237
*1082 FILLER_0_27_249
*1083 FILLER_0_27_261
*1084 FILLER_0_27_273
*1085 FILLER_0_27_279
*1086 FILLER_0_27_281
*1087 FILLER_0_27_293
*1088 FILLER_0_27_305
*1089 FILLER_0_27_317
*1090 FILLER_0_27_329
*1091 FILLER_0_27_33
*1092 FILLER_0_27_335
*1093 FILLER_0_27_337
*1094 FILLER_0_27_349
*1095 FILLER_0_27_361
*1096 FILLER_0_27_373
*1097 FILLER_0_27_385
*1098 FILLER_0_27_391
*1099 FILLER_0_27_393
*1100 FILLER_0_27_405
*1101 FILLER_0_27_45
*1102 FILLER_0_27_53
*1103 FILLER_0_27_57
*1104 FILLER_0_27_69
*1105 FILLER_0_27_81
*1106 FILLER_0_27_9
*1107 FILLER_0_27_93
*1108 FILLER_0_28_109
*1109 FILLER_0_28_121
*1110 FILLER_0_28_133
*1111 FILLER_0_28_139
*1112 FILLER_0_28_141
*1113 FILLER_0_28_153
*1114 FILLER_0_28_165
*1115 FILLER_0_28_177
*1116 FILLER_0_28_189
*1117 FILLER_0_28_195
*1118 FILLER_0_28_197
*1119 FILLER_0_28_20
*1120 FILLER_0_28_209
*1121 FILLER_0_28_221
*1122 FILLER_0_28_233
*1123 FILLER_0_28_245
*1124 FILLER_0_28_251
*1125 FILLER_0_28_253
*1126 FILLER_0_28_265
*1127 FILLER_0_28_277
*1128 FILLER_0_28_289
*1129 FILLER_0_28_29
*1130 FILLER_0_28_3
*1131 FILLER_0_28_301
*1132 FILLER_0_28_307
*1133 FILLER_0_28_309
*1134 FILLER_0_28_321
*1135 FILLER_0_28_333
*1136 FILLER_0_28_345
*1137 FILLER_0_28_357
*1138 FILLER_0_28_363
*1139 FILLER_0_28_365
*1140 FILLER_0_28_377
*1141 FILLER_0_28_389
*1142 FILLER_0_28_401
*1143 FILLER_0_28_41
*1144 FILLER_0_28_53
*1145 FILLER_0_28_65
*1146 FILLER_0_28_77
*1147 FILLER_0_28_83
*1148 FILLER_0_28_85
*1149 FILLER_0_28_97
*1150 FILLER_0_29_105
*1151 FILLER_0_29_111
*1152 FILLER_0_29_113
*1153 FILLER_0_29_125
*1154 FILLER_0_29_137
*1155 FILLER_0_29_149
*1156 FILLER_0_29_161
*1157 FILLER_0_29_167
*1158 FILLER_0_29_169
*1159 FILLER_0_29_181
*1160 FILLER_0_29_193
*1161 FILLER_0_29_20
*1162 FILLER_0_29_205
*1163 FILLER_0_29_217
*1164 FILLER_0_29_223
*1165 FILLER_0_29_225
*1166 FILLER_0_29_237
*1167 FILLER_0_29_249
*1168 FILLER_0_29_261
*1169 FILLER_0_29_273
*1170 FILLER_0_29_279
*1171 FILLER_0_29_281
*1172 FILLER_0_29_293
*1173 FILLER_0_29_305
*1174 FILLER_0_29_317
*1175 FILLER_0_29_32
*1176 FILLER_0_29_329
*1177 FILLER_0_29_335
*1178 FILLER_0_29_337
*1179 FILLER_0_29_349
*1180 FILLER_0_29_361
*1181 FILLER_0_29_373
*1182 FILLER_0_29_385
*1183 FILLER_0_29_391
*1184 FILLER_0_29_393
*1185 FILLER_0_29_405
*1186 FILLER_0_29_44
*1187 FILLER_0_29_57
*1188 FILLER_0_29_69
*1189 FILLER_0_29_81
*1190 FILLER_0_29_93
*1191 FILLER_0_2_109
*1192 FILLER_0_2_121
*1193 FILLER_0_2_133
*1194 FILLER_0_2_139
*1195 FILLER_0_2_141
*1196 FILLER_0_2_153
*1197 FILLER_0_2_165
*1198 FILLER_0_2_177
*1199 FILLER_0_2_18
*1200 FILLER_0_2_189
*1201 FILLER_0_2_195
*1202 FILLER_0_2_197
*1203 FILLER_0_2_209
*1204 FILLER_0_2_221
*1205 FILLER_0_2_233
*1206 FILLER_0_2_245
*1207 FILLER_0_2_251
*1208 FILLER_0_2_253
*1209 FILLER_0_2_26
*1210 FILLER_0_2_265
*1211 FILLER_0_2_277
*1212 FILLER_0_2_289
*1213 FILLER_0_2_29
*1214 FILLER_0_2_301
*1215 FILLER_0_2_307
*1216 FILLER_0_2_309
*1217 FILLER_0_2_321
*1218 FILLER_0_2_333
*1219 FILLER_0_2_345
*1220 FILLER_0_2_357
*1221 FILLER_0_2_363
*1222 FILLER_0_2_365
*1223 FILLER_0_2_377
*1224 FILLER_0_2_389
*1225 FILLER_0_2_401
*1226 FILLER_0_2_41
*1227 FILLER_0_2_53
*1228 FILLER_0_2_6
*1229 FILLER_0_2_65
*1230 FILLER_0_2_77
*1231 FILLER_0_2_83
*1232 FILLER_0_2_85
*1233 FILLER_0_2_97
*1234 FILLER_0_30_109
*1235 FILLER_0_30_121
*1236 FILLER_0_30_133
*1237 FILLER_0_30_139
*1238 FILLER_0_30_14
*1239 FILLER_0_30_141
*1240 FILLER_0_30_153
*1241 FILLER_0_30_165
*1242 FILLER_0_30_177
*1243 FILLER_0_30_189
*1244 FILLER_0_30_195
*1245 FILLER_0_30_197
*1246 FILLER_0_30_209
*1247 FILLER_0_30_221
*1248 FILLER_0_30_233
*1249 FILLER_0_30_245
*1250 FILLER_0_30_251
*1251 FILLER_0_30_253
*1252 FILLER_0_30_26
*1253 FILLER_0_30_265
*1254 FILLER_0_30_277
*1255 FILLER_0_30_289
*1256 FILLER_0_30_29
*1257 FILLER_0_30_301
*1258 FILLER_0_30_307
*1259 FILLER_0_30_309
*1260 FILLER_0_30_321
*1261 FILLER_0_30_333
*1262 FILLER_0_30_345
*1263 FILLER_0_30_357
*1264 FILLER_0_30_363
*1265 FILLER_0_30_365
*1266 FILLER_0_30_377
*1267 FILLER_0_30_389
*1268 FILLER_0_30_401
*1269 FILLER_0_30_41
*1270 FILLER_0_30_53
*1271 FILLER_0_30_6
*1272 FILLER_0_30_65
*1273 FILLER_0_30_77
*1274 FILLER_0_30_83
*1275 FILLER_0_30_85
*1276 FILLER_0_30_97
*1277 FILLER_0_31_105
*1278 FILLER_0_31_111
*1279 FILLER_0_31_113
*1280 FILLER_0_31_125
*1281 FILLER_0_31_137
*1282 FILLER_0_31_149
*1283 FILLER_0_31_161
*1284 FILLER_0_31_167
*1285 FILLER_0_31_169
*1286 FILLER_0_31_181
*1287 FILLER_0_31_193
*1288 FILLER_0_31_20
*1289 FILLER_0_31_205
*1290 FILLER_0_31_217
*1291 FILLER_0_31_223
*1292 FILLER_0_31_225
*1293 FILLER_0_31_237
*1294 FILLER_0_31_249
*1295 FILLER_0_31_261
*1296 FILLER_0_31_273
*1297 FILLER_0_31_279
*1298 FILLER_0_31_281
*1299 FILLER_0_31_293
*1300 FILLER_0_31_3
*1301 FILLER_0_31_305
*1302 FILLER_0_31_317
*1303 FILLER_0_31_32
*1304 FILLER_0_31_329
*1305 FILLER_0_31_335
*1306 FILLER_0_31_337
*1307 FILLER_0_31_349
*1308 FILLER_0_31_361
*1309 FILLER_0_31_373
*1310 FILLER_0_31_385
*1311 FILLER_0_31_391
*1312 FILLER_0_31_393
*1313 FILLER_0_31_405
*1314 FILLER_0_31_44
*1315 FILLER_0_31_57
*1316 FILLER_0_31_69
*1317 FILLER_0_31_81
*1318 FILLER_0_31_93
*1319 FILLER_0_32_109
*1320 FILLER_0_32_121
*1321 FILLER_0_32_133
*1322 FILLER_0_32_139
*1323 FILLER_0_32_141
*1324 FILLER_0_32_153
*1325 FILLER_0_32_165
*1326 FILLER_0_32_177
*1327 FILLER_0_32_189
*1328 FILLER_0_32_195
*1329 FILLER_0_32_197
*1330 FILLER_0_32_209
*1331 FILLER_0_32_21
*1332 FILLER_0_32_221
*1333 FILLER_0_32_233
*1334 FILLER_0_32_245
*1335 FILLER_0_32_251
*1336 FILLER_0_32_253
*1337 FILLER_0_32_265
*1338 FILLER_0_32_27
*1339 FILLER_0_32_277
*1340 FILLER_0_32_289
*1341 FILLER_0_32_29
*1342 FILLER_0_32_301
*1343 FILLER_0_32_307
*1344 FILLER_0_32_309
*1345 FILLER_0_32_321
*1346 FILLER_0_32_333
*1347 FILLER_0_32_345
*1348 FILLER_0_32_357
*1349 FILLER_0_32_363
*1350 FILLER_0_32_365
*1351 FILLER_0_32_377
*1352 FILLER_0_32_389
*1353 FILLER_0_32_401
*1354 FILLER_0_32_41
*1355 FILLER_0_32_53
*1356 FILLER_0_32_65
*1357 FILLER_0_32_77
*1358 FILLER_0_32_83
*1359 FILLER_0_32_85
*1360 FILLER_0_32_9
*1361 FILLER_0_32_97
*1362 FILLER_0_33_105
*1363 FILLER_0_33_111
*1364 FILLER_0_33_113
*1365 FILLER_0_33_125
*1366 FILLER_0_33_137
*1367 FILLER_0_33_149
*1368 FILLER_0_33_16
*1369 FILLER_0_33_161
*1370 FILLER_0_33_167
*1371 FILLER_0_33_169
*1372 FILLER_0_33_181
*1373 FILLER_0_33_193
*1374 FILLER_0_33_205
*1375 FILLER_0_33_217
*1376 FILLER_0_33_223
*1377 FILLER_0_33_225
*1378 FILLER_0_33_237
*1379 FILLER_0_33_249
*1380 FILLER_0_33_261
*1381 FILLER_0_33_273
*1382 FILLER_0_33_279
*1383 FILLER_0_33_28
*1384 FILLER_0_33_281
*1385 FILLER_0_33_293
*1386 FILLER_0_33_3
*1387 FILLER_0_33_305
*1388 FILLER_0_33_317
*1389 FILLER_0_33_329
*1390 FILLER_0_33_335
*1391 FILLER_0_33_337
*1392 FILLER_0_33_349
*1393 FILLER_0_33_361
*1394 FILLER_0_33_373
*1395 FILLER_0_33_385
*1396 FILLER_0_33_391
*1397 FILLER_0_33_393
*1398 FILLER_0_33_40
*1399 FILLER_0_33_52
*1400 FILLER_0_33_57
*1401 FILLER_0_33_69
*1402 FILLER_0_33_81
*1403 FILLER_0_33_93
*1404 FILLER_0_34_109
*1405 FILLER_0_34_121
*1406 FILLER_0_34_133
*1407 FILLER_0_34_139
*1408 FILLER_0_34_141
*1409 FILLER_0_34_153
*1410 FILLER_0_34_165
*1411 FILLER_0_34_177
*1412 FILLER_0_34_189
*1413 FILLER_0_34_195
*1414 FILLER_0_34_197
*1415 FILLER_0_34_209
*1416 FILLER_0_34_21
*1417 FILLER_0_34_221
*1418 FILLER_0_34_233
*1419 FILLER_0_34_245
*1420 FILLER_0_34_251
*1421 FILLER_0_34_253
*1422 FILLER_0_34_265
*1423 FILLER_0_34_27
*1424 FILLER_0_34_277
*1425 FILLER_0_34_289
*1426 FILLER_0_34_29
*1427 FILLER_0_34_301
*1428 FILLER_0_34_307
*1429 FILLER_0_34_309
*1430 FILLER_0_34_321
*1431 FILLER_0_34_333
*1432 FILLER_0_34_345
*1433 FILLER_0_34_357
*1434 FILLER_0_34_363
*1435 FILLER_0_34_365
*1436 FILLER_0_34_377
*1437 FILLER_0_34_389
*1438 FILLER_0_34_401
*1439 FILLER_0_34_41
*1440 FILLER_0_34_53
*1441 FILLER_0_34_65
*1442 FILLER_0_34_77
*1443 FILLER_0_34_83
*1444 FILLER_0_34_85
*1445 FILLER_0_34_9
*1446 FILLER_0_34_97
*1447 FILLER_0_35_105
*1448 FILLER_0_35_111
*1449 FILLER_0_35_113
*1450 FILLER_0_35_125
*1451 FILLER_0_35_13
*1452 FILLER_0_35_137
*1453 FILLER_0_35_149
*1454 FILLER_0_35_161
*1455 FILLER_0_35_167
*1456 FILLER_0_35_169
*1457 FILLER_0_35_181
*1458 FILLER_0_35_193
*1459 FILLER_0_35_205
*1460 FILLER_0_35_217
*1461 FILLER_0_35_223
*1462 FILLER_0_35_225
*1463 FILLER_0_35_237
*1464 FILLER_0_35_249
*1465 FILLER_0_35_25
*1466 FILLER_0_35_261
*1467 FILLER_0_35_273
*1468 FILLER_0_35_279
*1469 FILLER_0_35_281
*1470 FILLER_0_35_293
*1471 FILLER_0_35_3
*1472 FILLER_0_35_305
*1473 FILLER_0_35_317
*1474 FILLER_0_35_329
*1475 FILLER_0_35_335
*1476 FILLER_0_35_337
*1477 FILLER_0_35_349
*1478 FILLER_0_35_361
*1479 FILLER_0_35_37
*1480 FILLER_0_35_373
*1481 FILLER_0_35_385
*1482 FILLER_0_35_391
*1483 FILLER_0_35_393
*1484 FILLER_0_35_405
*1485 FILLER_0_35_49
*1486 FILLER_0_35_55
*1487 FILLER_0_35_57
*1488 FILLER_0_35_69
*1489 FILLER_0_35_81
*1490 FILLER_0_35_93
*1491 FILLER_0_36_109
*1492 FILLER_0_36_121
*1493 FILLER_0_36_133
*1494 FILLER_0_36_139
*1495 FILLER_0_36_141
*1496 FILLER_0_36_153
*1497 FILLER_0_36_16
*1498 FILLER_0_36_165
*1499 FILLER_0_36_177
*1500 FILLER_0_36_189
*1501 FILLER_0_36_195
*1502 FILLER_0_36_197
*1503 FILLER_0_36_209
*1504 FILLER_0_36_221
*1505 FILLER_0_36_233
*1506 FILLER_0_36_245
*1507 FILLER_0_36_251
*1508 FILLER_0_36_253
*1509 FILLER_0_36_265
*1510 FILLER_0_36_277
*1511 FILLER_0_36_289
*1512 FILLER_0_36_29
*1513 FILLER_0_36_301
*1514 FILLER_0_36_307
*1515 FILLER_0_36_309
*1516 FILLER_0_36_321
*1517 FILLER_0_36_333
*1518 FILLER_0_36_345