*SPEF "ieee 1481-1999"
*DESIGN "muller_c_proj"
*DATE "11:11:11 Fri 11 11, 1111"
*VENDOR "OpenRCX"
*PROGRAM "Parallel Extraction"
*VERSION "1.0"
*DESIGN_FLOW "NAME_SCOPE LOCAL" "PIN_CAP NONE"
*DIVIDER /
*DELIMITER :
*BUS_DELIMITER []
*T_UNIT 1 NS
*C_UNIT 1 PF
*R_UNIT 1 OHM
*L_UNIT 1 HENRY

*NAME_MAP
*1 io_in[0]
*2 io_in[1]
*3 io_in[2]
*4 io_in[3]
*5 io_in[4]
*6 io_in[5]
*7 io_out
*10 _0_
*11 _1_
*12 _2_
*13 _3_
*14 net1
*15 net2
*16 net3
*17 net4
*18 net5
*19 net6
*20 net7
*21 ANTENNA__5__B1
*22 ANTENNA_output7_A
*23 FILLER_0_0_109
*24 FILLER_0_0_113
*25 FILLER_0_0_125
*26 FILLER_0_0_137
*27 FILLER_0_0_141
*28 FILLER_0_0_15
*29 FILLER_0_0_153
*30 FILLER_0_0_165
*31 FILLER_0_0_169
*32 FILLER_0_0_181
*33 FILLER_0_0_193
*34 FILLER_0_0_197
*35 FILLER_0_0_209
*36 FILLER_0_0_221
*37 FILLER_0_0_225
*38 FILLER_0_0_237
*39 FILLER_0_0_249
*40 FILLER_0_0_253
*41 FILLER_0_0_265
*42 FILLER_0_0_27
*43 FILLER_0_0_277
*44 FILLER_0_0_281
*45 FILLER_0_0_29
*46 FILLER_0_0_293
*47 FILLER_0_0_3
*48 FILLER_0_0_305
*49 FILLER_0_0_309
*50 FILLER_0_0_321
*51 FILLER_0_0_333
*52 FILLER_0_0_337
*53 FILLER_0_0_349
*54 FILLER_0_0_361
*55 FILLER_0_0_365
*56 FILLER_0_0_377
*57 FILLER_0_0_389
*58 FILLER_0_0_393
*59 FILLER_0_0_405
*60 FILLER_0_0_41
*61 FILLER_0_0_53
*62 FILLER_0_0_57
*63 FILLER_0_0_69
*64 FILLER_0_0_81
*65 FILLER_0_0_85
*66 FILLER_0_0_97
*67 FILLER_0_10_109
*68 FILLER_0_10_121
*69 FILLER_0_10_133
*70 FILLER_0_10_139
*71 FILLER_0_10_141
*72 FILLER_0_10_15
*73 FILLER_0_10_153
*74 FILLER_0_10_165
*75 FILLER_0_10_177
*76 FILLER_0_10_189
*77 FILLER_0_10_195
*78 FILLER_0_10_197
*79 FILLER_0_10_209
*80 FILLER_0_10_221
*81 FILLER_0_10_233
*82 FILLER_0_10_245
*83 FILLER_0_10_251
*84 FILLER_0_10_253
*85 FILLER_0_10_265
*86 FILLER_0_10_27
*87 FILLER_0_10_277
*88 FILLER_0_10_289
*89 FILLER_0_10_29
*90 FILLER_0_10_3
*91 FILLER_0_10_301
*92 FILLER_0_10_307
*93 FILLER_0_10_309
*94 FILLER_0_10_321
*95 FILLER_0_10_333
*96 FILLER_0_10_345
*97 FILLER_0_10_357
*98 FILLER_0_10_363
*99 FILLER_0_10_365
*100 FILLER_0_10_377
*101 FILLER_0_10_389
*102 FILLER_0_10_401
*103 FILLER_0_10_41
*104 FILLER_0_10_53
*105 FILLER_0_10_65
*106 FILLER_0_10_77
*107 FILLER_0_10_83
*108 FILLER_0_10_85
*109 FILLER_0_10_97
*110 FILLER_0_11_105
*111 FILLER_0_11_111
*112 FILLER_0_11_113
*113 FILLER_0_11_125
*114 FILLER_0_11_137
*115 FILLER_0_11_149
*116 FILLER_0_11_15
*117 FILLER_0_11_161
*118 FILLER_0_11_167
*119 FILLER_0_11_169
*120 FILLER_0_11_181
*121 FILLER_0_11_193
*122 FILLER_0_11_205
*123 FILLER_0_11_217
*124 FILLER_0_11_223
*125 FILLER_0_11_225
*126 FILLER_0_11_237
*127 FILLER_0_11_249
*128 FILLER_0_11_261
*129 FILLER_0_11_27
*130 FILLER_0_11_273
*131 FILLER_0_11_279
*132 FILLER_0_11_281
*133 FILLER_0_11_293
*134 FILLER_0_11_3
*135 FILLER_0_11_305
*136 FILLER_0_11_317
*137 FILLER_0_11_329
*138 FILLER_0_11_335
*139 FILLER_0_11_337
*140 FILLER_0_11_349
*141 FILLER_0_11_361
*142 FILLER_0_11_373
*143 FILLER_0_11_385
*144 FILLER_0_11_39
*145 FILLER_0_11_391
*146 FILLER_0_11_393
*147 FILLER_0_11_405
*148 FILLER_0_11_51
*149 FILLER_0_11_55
*150 FILLER_0_11_57
*151 FILLER_0_11_69
*152 FILLER_0_11_81
*153 FILLER_0_11_93
*154 FILLER_0_12_109
*155 FILLER_0_12_121
*156 FILLER_0_12_133
*157 FILLER_0_12_139
*158 FILLER_0_12_141
*159 FILLER_0_12_15
*160 FILLER_0_12_153
*161 FILLER_0_12_165
*162 FILLER_0_12_177
*163 FILLER_0_12_189
*164 FILLER_0_12_195
*165 FILLER_0_12_197
*166 FILLER_0_12_209
*167 FILLER_0_12_221
*168 FILLER_0_12_233
*169 FILLER_0_12_245
*170 FILLER_0_12_251
*171 FILLER_0_12_253
*172 FILLER_0_12_265
*173 FILLER_0_12_27
*174 FILLER_0_12_277
*175 FILLER_0_12_289
*176 FILLER_0_12_29
*177 FILLER_0_12_3
*178 FILLER_0_12_301
*179 FILLER_0_12_307
*180 FILLER_0_12_309
*181 FILLER_0_12_321
*182 FILLER_0_12_333
*183 FILLER_0_12_345
*184 FILLER_0_12_357
*185 FILLER_0_12_363
*186 FILLER_0_12_365
*187 FILLER_0_12_377
*188 FILLER_0_12_389
*189 FILLER_0_12_401
*190 FILLER_0_12_41
*191 FILLER_0_12_53
*192 FILLER_0_12_65
*193 FILLER_0_12_77
*194 FILLER_0_12_83
*195 FILLER_0_12_85
*196 FILLER_0_12_97
*197 FILLER_0_13_105
*198 FILLER_0_13_111
*199 FILLER_0_13_113
*200 FILLER_0_13_125
*201 FILLER_0_13_137
*202 FILLER_0_13_149
*203 FILLER_0_13_15
*204 FILLER_0_13_161
*205 FILLER_0_13_167
*206 FILLER_0_13_169
*207 FILLER_0_13_181
*208 FILLER_0_13_193
*209 FILLER_0_13_205
*210 FILLER_0_13_217
*211 FILLER_0_13_223
*212 FILLER_0_13_225
*213 FILLER_0_13_237
*214 FILLER_0_13_249
*215 FILLER_0_13_261
*216 FILLER_0_13_27
*217 FILLER_0_13_273
*218 FILLER_0_13_279
*219 FILLER_0_13_281
*220 FILLER_0_13_293
*221 FILLER_0_13_3
*222 FILLER_0_13_305
*223 FILLER_0_13_317
*224 FILLER_0_13_329
*225 FILLER_0_13_335
*226 FILLER_0_13_337
*227 FILLER_0_13_349
*228 FILLER_0_13_361
*229 FILLER_0_13_373
*230 FILLER_0_13_385
*231 FILLER_0_13_39
*232 FILLER_0_13_391
*233 FILLER_0_13_393
*234 FILLER_0_13_405
*235 FILLER_0_13_51
*236 FILLER_0_13_55
*237 FILLER_0_13_57
*238 FILLER_0_13_69
*239 FILLER_0_13_81
*240 FILLER_0_13_93
*241 FILLER_0_14_109
*242 FILLER_0_14_121
*243 FILLER_0_14_133
*244 FILLER_0_14_139
*245 FILLER_0_14_141
*246 FILLER_0_14_15
*247 FILLER_0_14_153
*248 FILLER_0_14_165
*249 FILLER_0_14_177
*250 FILLER_0_14_189
*251 FILLER_0_14_195
*252 FILLER_0_14_197
*253 FILLER_0_14_209
*254 FILLER_0_14_221
*255 FILLER_0_14_233
*256 FILLER_0_14_245
*257 FILLER_0_14_251
*258 FILLER_0_14_253
*259 FILLER_0_14_265
*260 FILLER_0_14_27
*261 FILLER_0_14_277
*262 FILLER_0_14_289
*263 FILLER_0_14_29
*264 FILLER_0_14_3
*265 FILLER_0_14_301
*266 FILLER_0_14_307
*267 FILLER_0_14_309
*268 FILLER_0_14_321
*269 FILLER_0_14_333
*270 FILLER_0_14_345
*271 FILLER_0_14_357
*272 FILLER_0_14_363
*273 FILLER_0_14_365
*274 FILLER_0_14_377
*275 FILLER_0_14_389
*276 FILLER_0_14_401
*277 FILLER_0_14_41
*278 FILLER_0_14_53
*279 FILLER_0_14_65
*280 FILLER_0_14_77
*281 FILLER_0_14_83
*282 FILLER_0_14_85
*283 FILLER_0_14_97
*284 FILLER_0_15_105
*285 FILLER_0_15_111
*286 FILLER_0_15_113
*287 FILLER_0_15_125
*288 FILLER_0_15_137
*289 FILLER_0_15_149
*290 FILLER_0_15_161
*291 FILLER_0_15_167
*292 FILLER_0_15_169
*293 FILLER_0_15_18
*294 FILLER_0_15_181
*295 FILLER_0_15_193
*296 FILLER_0_15_205
*297 FILLER_0_15_217
*298 FILLER_0_15_223
*299 FILLER_0_15_225
*300 FILLER_0_15_237
*301 FILLER_0_15_249
*302 FILLER_0_15_261
*303 FILLER_0_15_273
*304 FILLER_0_15_279
*305 FILLER_0_15_281
*306 FILLER_0_15_293
*307 FILLER_0_15_30
*308 FILLER_0_15_305
*309 FILLER_0_15_317
*310 FILLER_0_15_329
*311 FILLER_0_15_335
*312 FILLER_0_15_337
*313 FILLER_0_15_349
*314 FILLER_0_15_361
*315 FILLER_0_15_373
*316 FILLER_0_15_385
*317 FILLER_0_15_391
*318 FILLER_0_15_393
*319 FILLER_0_15_405
*320 FILLER_0_15_42
*321 FILLER_0_15_54
*322 FILLER_0_15_57
*323 FILLER_0_15_6
*324 FILLER_0_15_69
*325 FILLER_0_15_81
*326 FILLER_0_15_93
*327 FILLER_0_16_109
*328 FILLER_0_16_121
*329 FILLER_0_16_133
*330 FILLER_0_16_139
*331 FILLER_0_16_141
*332 FILLER_0_16_15
*333 FILLER_0_16_153
*334 FILLER_0_16_165
*335 FILLER_0_16_177
*336 FILLER_0_16_189
*337 FILLER_0_16_195
*338 FILLER_0_16_197
*339 FILLER_0_16_209
*340 FILLER_0_16_221
*341 FILLER_0_16_233
*342 FILLER_0_16_245
*343 FILLER_0_16_251
*344 FILLER_0_16_253
*345 FILLER_0_16_265
*346 FILLER_0_16_27
*347 FILLER_0_16_277
*348 FILLER_0_16_289
*349 FILLER_0_16_29
*350 FILLER_0_16_3
*351 FILLER_0_16_301
*352 FILLER_0_16_307
*353 FILLER_0_16_309
*354 FILLER_0_16_321
*355 FILLER_0_16_333
*356 FILLER_0_16_345
*357 FILLER_0_16_357
*358 FILLER_0_16_363
*359 FILLER_0_16_365
*360 FILLER_0_16_377
*361 FILLER_0_16_389
*362 FILLER_0_16_401
*363 FILLER_0_16_41
*364 FILLER_0_16_53
*365 FILLER_0_16_65
*366 FILLER_0_16_77
*367 FILLER_0_16_83
*368 FILLER_0_16_85
*369 FILLER_0_16_97
*370 FILLER_0_17_105
*371 FILLER_0_17_111
*372 FILLER_0_17_113
*373 FILLER_0_17_125
*374 FILLER_0_17_137
*375 FILLER_0_17_149
*376 FILLER_0_17_15
*377 FILLER_0_17_161
*378 FILLER_0_17_167
*379 FILLER_0_17_169
*380 FILLER_0_17_181
*381 FILLER_0_17_193
*382 FILLER_0_17_205
*383 FILLER_0_17_217
*384 FILLER_0_17_223
*385 FILLER_0_17_225
*386 FILLER_0_17_237
*387 FILLER_0_17_249
*388 FILLER_0_17_261
*389 FILLER_0_17_27
*390 FILLER_0_17_273
*391 FILLER_0_17_279
*392 FILLER_0_17_281
*393 FILLER_0_17_293
*394 FILLER_0_17_3
*395 FILLER_0_17_305
*396 FILLER_0_17_317
*397 FILLER_0_17_329
*398 FILLER_0_17_335
*399 FILLER_0_17_337
*400 FILLER_0_17_349
*401 FILLER_0_17_361
*402 FILLER_0_17_373
*403 FILLER_0_17_385
*404 FILLER_0_17_39
*405 FILLER_0_17_391
*406 FILLER_0_17_393
*407 FILLER_0_17_405
*408 FILLER_0_17_51
*409 FILLER_0_17_55
*410 FILLER_0_17_57
*411 FILLER_0_17_69
*412 FILLER_0_17_81
*413 FILLER_0_17_93
*414 FILLER_0_18_109
*415 FILLER_0_18_121
*416 FILLER_0_18_133
*417 FILLER_0_18_139
*418 FILLER_0_18_141
*419 FILLER_0_18_15
*420 FILLER_0_18_153
*421 FILLER_0_18_165
*422 FILLER_0_18_177
*423 FILLER_0_18_189
*424 FILLER_0_18_195
*425 FILLER_0_18_197
*426 FILLER_0_18_209
*427 FILLER_0_18_221
*428 FILLER_0_18_233
*429 FILLER_0_18_245
*430 FILLER_0_18_251
*431 FILLER_0_18_253
*432 FILLER_0_18_265
*433 FILLER_0_18_27
*434 FILLER_0_18_277
*435 FILLER_0_18_289
*436 FILLER_0_18_29
*437 FILLER_0_18_3
*438 FILLER_0_18_301
*439 FILLER_0_18_307
*440 FILLER_0_18_309
*441 FILLER_0_18_321
*442 FILLER_0_18_333
*443 FILLER_0_18_345
*444 FILLER_0_18_357
*445 FILLER_0_18_363
*446 FILLER_0_18_365
*447 FILLER_0_18_377
*448 FILLER_0_18_389
*449 FILLER_0_18_401
*450 FILLER_0_18_41
*451 FILLER_0_18_53
*452 FILLER_0_18_65
*453 FILLER_0_18_77
*454 FILLER_0_18_83
*455 FILLER_0_18_85
*456 FILLER_0_18_97
*457 FILLER_0_19_105
*458 FILLER_0_19_111
*459 FILLER_0_19_113
*460 FILLER_0_19_125
*461 FILLER_0_19_137
*462 FILLER_0_19_149
*463 FILLER_0_19_15
*464 FILLER_0_19_161
*465 FILLER_0_19_167
*466 FILLER_0_19_169
*467 FILLER_0_19_181
*468 FILLER_0_19_193
*469 FILLER_0_19_205
*470 FILLER_0_19_217
*471 FILLER_0_19_223
*472 FILLER_0_19_225
*473 FILLER_0_19_237
*474 FILLER_0_19_249
*475 FILLER_0_19_261
*476 FILLER_0_19_27
*477 FILLER_0_19_273
*478 FILLER_0_19_279
*479 FILLER_0_19_281
*480 FILLER_0_19_293
*481 FILLER_0_19_3
*482 FILLER_0_19_305
*483 FILLER_0_19_317
*484 FILLER_0_19_329
*485 FILLER_0_19_335
*486 FILLER_0_19_337
*487 FILLER_0_19_349
*488 FILLER_0_19_361
*489 FILLER_0_19_373
*490 FILLER_0_19_385
*491 FILLER_0_19_39
*492 FILLER_0_19_391
*493 FILLER_0_19_393
*494 FILLER_0_19_405
*495 FILLER_0_19_51
*496 FILLER_0_19_55
*497 FILLER_0_19_57
*498 FILLER_0_19_69
*499 FILLER_0_19_81
*500 FILLER_0_19_93
*501 FILLER_0_1_105
*502 FILLER_0_1_111
*503 FILLER_0_1_113
*504 FILLER_0_1_125
*505 FILLER_0_1_137
*506 FILLER_0_1_149
*507 FILLER_0_1_15
*508 FILLER_0_1_161
*509 FILLER_0_1_167
*510 FILLER_0_1_169
*511 FILLER_0_1_181
*512 FILLER_0_1_193
*513 FILLER_0_1_205
*514 FILLER_0_1_217
*515 FILLER_0_1_223
*516 FILLER_0_1_225
*517 FILLER_0_1_237
*518 FILLER_0_1_249
*519 FILLER_0_1_261
*520 FILLER_0_1_27
*521 FILLER_0_1_273
*522 FILLER_0_1_279
*523 FILLER_0_1_281
*524 FILLER_0_1_293
*525 FILLER_0_1_3
*526 FILLER_0_1_305
*527 FILLER_0_1_317
*528 FILLER_0_1_329
*529 FILLER_0_1_335
*530 FILLER_0_1_337
*531 FILLER_0_1_349
*532 FILLER_0_1_361
*533 FILLER_0_1_373
*534 FILLER_0_1_385
*535 FILLER_0_1_39
*536 FILLER_0_1_391
*537 FILLER_0_1_393
*538 FILLER_0_1_405
*539 FILLER_0_1_51
*540 FILLER_0_1_55
*541 FILLER_0_1_57
*542 FILLER_0_1_69
*543 FILLER_0_1_81
*544 FILLER_0_1_93
*545 FILLER_0_20_109
*546 FILLER_0_20_121
*547 FILLER_0_20_133
*548 FILLER_0_20_139
*549 FILLER_0_20_141
*550 FILLER_0_20_15
*551 FILLER_0_20_153
*552 FILLER_0_20_165
*553 FILLER_0_20_177
*554 FILLER_0_20_189
*555 FILLER_0_20_195
*556 FILLER_0_20_197
*557 FILLER_0_20_209
*558 FILLER_0_20_221
*559 FILLER_0_20_233
*560 FILLER_0_20_245
*561 FILLER_0_20_251
*562 FILLER_0_20_253
*563 FILLER_0_20_265
*564 FILLER_0_20_27
*565 FILLER_0_20_277
*566 FILLER_0_20_289
*567 FILLER_0_20_29
*568 FILLER_0_20_3
*569 FILLER_0_20_301
*570 FILLER_0_20_307
*571 FILLER_0_20_309
*572 FILLER_0_20_321
*573 FILLER_0_20_333
*574 FILLER_0_20_345
*575 FILLER_0_20_357
*576 FILLER_0_20_363
*577 FILLER_0_20_365
*578 FILLER_0_20_377
*579 FILLER_0_20_389
*580 FILLER_0_20_401
*581 FILLER_0_20_41
*582 FILLER_0_20_53
*583 FILLER_0_20_65
*584 FILLER_0_20_77
*585 FILLER_0_20_83
*586 FILLER_0_20_85
*587 FILLER_0_20_97
*588 FILLER_0_21_105
*589 FILLER_0_21_111
*590 FILLER_0_21_113
*591 FILLER_0_21_125
*592 FILLER_0_21_137
*593 FILLER_0_21_149
*594 FILLER_0_21_15
*595 FILLER_0_21_161
*596 FILLER_0_21_167
*597 FILLER_0_21_169
*598 FILLER_0_21_181
*599 FILLER_0_21_193
*600 FILLER_0_21_205
*601 FILLER_0_21_217
*602 FILLER_0_21_223
*603 FILLER_0_21_225
*604 FILLER_0_21_237
*605 FILLER_0_21_249
*606 FILLER_0_21_261
*607 FILLER_0_21_27
*608 FILLER_0_21_273
*609 FILLER_0_21_279
*610 FILLER_0_21_281
*611 FILLER_0_21_293
*612 FILLER_0_21_3
*613 FILLER_0_21_305
*614 FILLER_0_21_317
*615 FILLER_0_21_329
*616 FILLER_0_21_335
*617 FILLER_0_21_337
*618 FILLER_0_21_349
*619 FILLER_0_21_361
*620 FILLER_0_21_373
*621 FILLER_0_21_385
*622 FILLER_0_21_39
*623 FILLER_0_21_391
*624 FILLER_0_21_393
*625 FILLER_0_21_405
*626 FILLER_0_21_51
*627 FILLER_0_21_55
*628 FILLER_0_21_57
*629 FILLER_0_21_69
*630 FILLER_0_21_81
*631 FILLER_0_21_93
*632 FILLER_0_22_109
*633 FILLER_0_22_121
*634 FILLER_0_22_133
*635 FILLER_0_22_139
*636 FILLER_0_22_141
*637 FILLER_0_22_15
*638 FILLER_0_22_153
*639 FILLER_0_22_165
*640 FILLER_0_22_177
*641 FILLER_0_22_189
*642 FILLER_0_22_195
*643 FILLER_0_22_197
*644 FILLER_0_22_209
*645 FILLER_0_22_221
*646 FILLER_0_22_233
*647 FILLER_0_22_245
*648 FILLER_0_22_251
*649 FILLER_0_22_253
*650 FILLER_0_22_265
*651 FILLER_0_22_27
*652 FILLER_0_22_277
*653 FILLER_0_22_289
*654 FILLER_0_22_29
*655 FILLER_0_22_3
*656 FILLER_0_22_301
*657 FILLER_0_22_307
*658 FILLER_0_22_309
*659 FILLER_0_22_321
*660 FILLER_0_22_333
*661 FILLER_0_22_345
*662 FILLER_0_22_357
*663 FILLER_0_22_363
*664 FILLER_0_22_365
*665 FILLER_0_22_377
*666 FILLER_0_22_389
*667 FILLER_0_22_401
*668 FILLER_0_22_41
*669 FILLER_0_22_53
*670 FILLER_0_22_65
*671 FILLER_0_22_77
*672 FILLER_0_22_83
*673 FILLER_0_22_85
*674 FILLER_0_22_97
*675 FILLER_0_23_105
*676 FILLER_0_23_111
*677 FILLER_0_23_113
*678 FILLER_0_23_125
*679 FILLER_0_23_137
*680 FILLER_0_23_149
*681 FILLER_0_23_15
*682 FILLER_0_23_161
*683 FILLER_0_23_167
*684 FILLER_0_23_169
*685 FILLER_0_23_181
*686 FILLER_0_23_193
*687 FILLER_0_23_205
*688 FILLER_0_23_217
*689 FILLER_0_23_223
*690 FILLER_0_23_225
*691 FILLER_0_23_237
*692 FILLER_0_23_249
*693 FILLER_0_23_261
*694 FILLER_0_23_27
*695 FILLER_0_23_273
*696 FILLER_0_23_279
*697 FILLER_0_23_281
*698 FILLER_0_23_293
*699 FILLER_0_23_3
*700 FILLER_0_23_305
*701 FILLER_0_23_317
*702 FILLER_0_23_329
*703 FILLER_0_23_335
*704 FILLER_0_23_337
*705 FILLER_0_23_349
*706 FILLER_0_23_361
*707 FILLER_0_23_373
*708 FILLER_0_23_385
*709 FILLER_0_23_39
*710 FILLER_0_23_391
*711 FILLER_0_23_393
*712 FILLER_0_23_405
*713 FILLER_0_23_51
*714 FILLER_0_23_55
*715 FILLER_0_23_57
*716 FILLER_0_23_69
*717 FILLER_0_23_81
*718 FILLER_0_23_93
*719 FILLER_0_24_109
*720 FILLER_0_24_121
*721 FILLER_0_24_133
*722 FILLER_0_24_139
*723 FILLER_0_24_141
*724 FILLER_0_24_15
*725 FILLER_0_24_153
*726 FILLER_0_24_165
*727 FILLER_0_24_177
*728 FILLER_0_24_189
*729 FILLER_0_24_195
*730 FILLER_0_24_197
*731 FILLER_0_24_209
*732 FILLER_0_24_221
*733 FILLER_0_24_233
*734 FILLER_0_24_245
*735 FILLER_0_24_251
*736 FILLER_0_24_253
*737 FILLER_0_24_265
*738 FILLER_0_24_27
*739 FILLER_0_24_277
*740 FILLER_0_24_289
*741 FILLER_0_24_29
*742 FILLER_0_24_3
*743 FILLER_0_24_301
*744 FILLER_0_24_307
*745 FILLER_0_24_309
*746 FILLER_0_24_321
*747 FILLER_0_24_333
*748 FILLER_0_24_345
*749 FILLER_0_24_357
*750 FILLER_0_24_363
*751 FILLER_0_24_365
*752 FILLER_0_24_377
*753 FILLER_0_24_389
*754 FILLER_0_24_401
*755 FILLER_0_24_41
*756 FILLER_0_24_53
*757 FILLER_0_24_65
*758 FILLER_0_24_77
*759 FILLER_0_24_83
*760 FILLER_0_24_85
*761 FILLER_0_24_97
*762 FILLER_0_25_105
*763 FILLER_0_25_111
*764 FILLER_0_25_113
*765 FILLER_0_25_125
*766 FILLER_0_25_137
*767 FILLER_0_25_149
*768 FILLER_0_25_15
*769 FILLER_0_25_161
*770 FILLER_0_25_167
*771 FILLER_0_25_169
*772 FILLER_0_25_181
*773 FILLER_0_25_193
*774 FILLER_0_25_205
*775 FILLER_0_25_217
*776 FILLER_0_25_223
*777 FILLER_0_25_225
*778 FILLER_0_25_237
*779 FILLER_0_25_249
*780 FILLER_0_25_261
*781 FILLER_0_25_27
*782 FILLER_0_25_273
*783 FILLER_0_25_279
*784 FILLER_0_25_281
*785 FILLER_0_25_293
*786 FILLER_0_25_3
*787 FILLER_0_25_305
*788 FILLER_0_25_317
*789 FILLER_0_25_329
*790 FILLER_0_25_335
*791 FILLER_0_25_337
*792 FILLER_0_25_349
*793 FILLER_0_25_361
*794 FILLER_0_25_373
*795 FILLER_0_25_385
*796 FILLER_0_25_39
*797 FILLER_0_25_391
*798 FILLER_0_25_393
*799 FILLER_0_25_405
*800 FILLER_0_25_51
*801 FILLER_0_25_55
*802 FILLER_0_25_57
*803 FILLER_0_25_69
*804 FILLER_0_25_81
*805 FILLER_0_25_93
*806 FILLER_0_26_109
*807 FILLER_0_26_121
*808 FILLER_0_26_133
*809 FILLER_0_26_139
*810 FILLER_0_26_141
*811 FILLER_0_26_15
*812 FILLER_0_26_153
*813 FILLER_0_26_165
*814 FILLER_0_26_177
*815 FILLER_0_26_189
*816 FILLER_0_26_195
*817 FILLER_0_26_197
*818 FILLER_0_26_209
*819 FILLER_0_26_221
*820 FILLER_0_26_233
*821 FILLER_0_26_245
*822 FILLER_0_26_251
*823 FILLER_0_26_253
*824 FILLER_0_26_265
*825 FILLER_0_26_27
*826 FILLER_0_26_277
*827 FILLER_0_26_289
*828 FILLER_0_26_29
*829 FILLER_0_26_3
*830 FILLER_0_26_301
*831 FILLER_0_26_307
*832 FILLER_0_26_309
*833 FILLER_0_26_321
*834 FILLER_0_26_333
*835 FILLER_0_26_345
*836 FILLER_0_26_357
*837 FILLER_0_26_363
*838 FILLER_0_26_365
*839 FILLER_0_26_377
*840 FILLER_0_26_389
*841 FILLER_0_26_401
*842 FILLER_0_26_41
*843 FILLER_0_26_53
*844 FILLER_0_26_65
*845 FILLER_0_26_77
*846 FILLER_0_26_83
*847 FILLER_0_26_85
*848 FILLER_0_26_97
*849 FILLER_0_27_105
*850 FILLER_0_27_111
*851 FILLER_0_27_113
*852 FILLER_0_27_125
*853 FILLER_0_27_137
*854 FILLER_0_27_149
*855 FILLER_0_27_161
*856 FILLER_0_27_167
*857 FILLER_0_27_169
*858 FILLER_0_27_18
*859 FILLER_0_27_181
*860 FILLER_0_27_193
*861 FILLER_0_27_205
*862 FILLER_0_27_217
*863 FILLER_0_27_223
*864 FILLER_0_27_225
*865 FILLER_0_27_237
*866 FILLER_0_27_249
*867 FILLER_0_27_261
*868 FILLER_0_27_273
*869 FILLER_0_27_279
*870 FILLER_0_27_281
*871 FILLER_0_27_293
*872 FILLER_0_27_30
*873 FILLER_0_27_305
*874 FILLER_0_27_317
*875 FILLER_0_27_329
*876 FILLER_0_27_335
*877 FILLER_0_27_337
*878 FILLER_0_27_349
*879 FILLER_0_27_361
*880 FILLER_0_27_373
*881 FILLER_0_27_385
*882 FILLER_0_27_391
*883 FILLER_0_27_393
*884 FILLER_0_27_405
*885 FILLER_0_27_42
*886 FILLER_0_27_54
*887 FILLER_0_27_57
*888 FILLER_0_27_6
*889 FILLER_0_27_69
*890 FILLER_0_27_81
*891 FILLER_0_27_93
*892 FILLER_0_28_109
*893 FILLER_0_28_121
*894 FILLER_0_28_133
*895 FILLER_0_28_139
*896 FILLER_0_28_141
*897 FILLER_0_28_15
*898 FILLER_0_28_153
*899 FILLER_0_28_165
*900 FILLER_0_28_177
*901 FILLER_0_28_189
*902 FILLER_0_28_195
*903 FILLER_0_28_197
*904 FILLER_0_28_209
*905 FILLER_0_28_221
*906 FILLER_0_28_233
*907 FILLER_0_28_245
*908 FILLER_0_28_251
*909 FILLER_0_28_253
*910 FILLER_0_28_265
*911 FILLER_0_28_27
*912 FILLER_0_28_277
*913 FILLER_0_28_289
*914 FILLER_0_28_29
*915 FILLER_0_28_3
*916 FILLER_0_28_301
*917 FILLER_0_28_307
*918 FILLER_0_28_309
*919 FILLER_0_28_321
*920 FILLER_0_28_333
*921 FILLER_0_28_345
*922 FILLER_0_28_357
*923 FILLER_0_28_363
*924 FILLER_0_28_365
*925 FILLER_0_28_377
*926 FILLER_0_28_389
*927 FILLER_0_28_401
*928 FILLER_0_28_41
*929 FILLER_0_28_53
*930 FILLER_0_28_65
*931 FILLER_0_28_77
*932 FILLER_0_28_83
*933 FILLER_0_28_85
*934 FILLER_0_28_97
*935 FILLER_0_29_105
*936 FILLER_0_29_111
*937 FILLER_0_29_113
*938 FILLER_0_29_125
*939 FILLER_0_29_137
*940 FILLER_0_29_149
*941 FILLER_0_29_15
*942 FILLER_0_29_161
*943 FILLER_0_29_167
*944 FILLER_0_29_169
*945 FILLER_0_29_181
*946 FILLER_0_29_193
*947 FILLER_0_29_205
*948 FILLER_0_29_217
*949 FILLER_0_29_223
*950 FILLER_0_29_225
*951 FILLER_0_29_237
*952 FILLER_0_29_249
*953 FILLER_0_29_261
*954 FILLER_0_29_27
*955 FILLER_0_29_273
*956 FILLER_0_29_279
*957 FILLER_0_29_281
*958 FILLER_0_29_293
*959 FILLER_0_29_3
*960 FILLER_0_29_305
*961 FILLER_0_29_317
*962 FILLER_0_29_329
*963 FILLER_0_29_335
*964 FILLER_0_29_337
*965 FILLER_0_29_349
*966 FILLER_0_29_361
*967 FILLER_0_29_373
*968 FILLER_0_29_385
*969 FILLER_0_29_39
*970 FILLER_0_29_391
*971 FILLER_0_29_393
*972 FILLER_0_29_405
*973 FILLER_0_29_51
*974 FILLER_0_29_55
*975 FILLER_0_29_57
*976 FILLER_0_29_69
*977 FILLER_0_29_81
*978 FILLER_0_29_93
*979 FILLER_0_2_109
*980 FILLER_0_2_121
*981 FILLER_0_2_133
*982 FILLER_0_2_139
*983 FILLER_0_2_141
*984 FILLER_0_2_15
*985 FILLER_0_2_153
*986 FILLER_0_2_165
*987 FILLER_0_2_177
*988 FILLER_0_2_189
*989 FILLER_0_2_195
*990 FILLER_0_2_197
*991 FILLER_0_2_209
*992 FILLER_0_2_221
*993 FILLER_0_2_233
*994 FILLER_0_2_245
*995 FILLER_0_2_251
*996 FILLER_0_2_253
*997 FILLER_0_2_265
*998 FILLER_0_2_27
*999 FILLER_0_2_277
*1000 FILLER_0_2_289
*1001 FILLER_0_2_29
*1002 FILLER_0_2_3
*1003 FILLER_0_2_301
*1004 FILLER_0_2_307
*1005 FILLER_0_2_309
*1006 FILLER_0_2_321
*1007 FILLER_0_2_333
*1008 FILLER_0_2_345
*1009 FILLER_0_2_357
*1010 FILLER_0_2_363
*1011 FILLER_0_2_365
*1012 FILLER_0_2_377
*1013 FILLER_0_2_389
*1014 FILLER_0_2_401
*1015 FILLER_0_2_41
*1016 FILLER_0_2_53
*1017 FILLER_0_2_65
*1018 FILLER_0_2_77
*1019 FILLER_0_2_83
*1020 FILLER_0_2_85
*1021 FILLER_0_2_97
*1022 FILLER_0_30_109
*1023 FILLER_0_30_121
*1024 FILLER_0_30_133
*1025 FILLER_0_30_139
*1026 FILLER_0_30_141
*1027 FILLER_0_30_15
*1028 FILLER_0_30_153
*1029 FILLER_0_30_165
*1030 FILLER_0_30_177
*1031 FILLER_0_30_189
*1032 FILLER_0_30_195
*1033 FILLER_0_30_197
*1034 FILLER_0_30_209
*1035 FILLER_0_30_221
*1036 FILLER_0_30_233
*1037 FILLER_0_30_245
*1038 FILLER_0_30_251
*1039 FILLER_0_30_253
*1040 FILLER_0_30_265
*1041 FILLER_0_30_27
*1042 FILLER_0_30_277
*1043 FILLER_0_30_289
*1044 FILLER_0_30_29
*1045 FILLER_0_30_3
*1046 FILLER_0_30_301
*1047 FILLER_0_30_307
*1048 FILLER_0_30_309
*1049 FILLER_0_30_321
*1050 FILLER_0_30_333
*1051 FILLER_0_30_345
*1052 FILLER_0_30_357
*1053 FILLER_0_30_363
*1054 FILLER_0_30_365
*1055 FILLER_0_30_377
*1056 FILLER_0_30_389
*1057 FILLER_0_30_401
*1058 FILLER_0_30_41
*1059 FILLER_0_30_53
*1060 FILLER_0_30_65
*1061 FILLER_0_30_77
*1062 FILLER_0_30_83
*1063 FILLER_0_30_85
*1064 FILLER_0_30_97
*1065 FILLER_0_31_105
*1066 FILLER_0_31_111
*1067 FILLER_0_31_113
*1068 FILLER_0_31_125
*1069 FILLER_0_31_137
*1070 FILLER_0_31_149
*1071 FILLER_0_31_15
*1072 FILLER_0_31_161
*1073 FILLER_0_31_167
*1074 FILLER_0_31_169
*1075 FILLER_0_31_181
*1076 FILLER_0_31_193
*1077 FILLER_0_31_205
*1078 FILLER_0_31_217
*1079 FILLER_0_31_223
*1080 FILLER_0_31_225
*1081 FILLER_0_31_237
*1082 FILLER_0_31_249
*1083 FILLER_0_31_261
*1084 FILLER_0_31_27
*1085 FILLER_0_31_273
*1086 FILLER_0_31_279
*1087 FILLER_0_31_281
*1088 FILLER_0_31_293
*1089 FILLER_0_31_3
*1090 FILLER_0_31_305
*1091 FILLER_0_31_317
*1092 FILLER_0_31_329
*1093 FILLER_0_31_335
*1094 FILLER_0_31_337
*1095 FILLER_0_31_349
*1096 FILLER_0_31_361
*1097 FILLER_0_31_373
*1098 FILLER_0_31_385
*1099 FILLER_0_31_39
*1100 FILLER_0_31_391
*1101 FILLER_0_31_393
*1102 FILLER_0_31_405
*1103 FILLER_0_31_51
*1104 FILLER_0_31_55
*1105 FILLER_0_31_57
*1106 FILLER_0_31_69
*1107 FILLER_0_31_81
*1108 FILLER_0_31_93
*1109 FILLER_0_32_109
*1110 FILLER_0_32_121
*1111 FILLER_0_32_133
*1112 FILLER_0_32_139
*1113 FILLER_0_32_141
*1114 FILLER_0_32_153
*1115 FILLER_0_32_165
*1116 FILLER_0_32_177
*1117 FILLER_0_32_189
*1118 FILLER_0_32_195
*1119 FILLER_0_32_197
*1120 FILLER_0_32_20
*1121 FILLER_0_32_209
*1122 FILLER_0_32_221
*1123 FILLER_0_32_233
*1124 FILLER_0_32_245
*1125 FILLER_0_32_251
*1126 FILLER_0_32_253
*1127 FILLER_0_32_265
*1128 FILLER_0_32_277
*1129 FILLER_0_32_289
*1130 FILLER_0_32_29
*1131 FILLER_0_32_301
*1132 FILLER_0_32_307
*1133 FILLER_0_32_309
*1134 FILLER_0_32_321
*1135 FILLER_0_32_333
*1136 FILLER_0_32_345
*1137 FILLER_0_32_357
*1138 FILLER_0_32_363
*1139 FILLER_0_32_365
*1140 FILLER_0_32_377
*1141 FILLER_0_32_389
*1142 FILLER_0_32_401
*1143 FILLER_0_32_41
*1144 FILLER_0_32_53
*1145 FILLER_0_32_65
*1146 FILLER_0_32_77
*1147 FILLER_0_32_83
*1148 FILLER_0_32_85
*1149 FILLER_0_32_97
*1150 FILLER_0_33_105
*1151 FILLER_0_33_111
*1152 FILLER_0_33_113
*1153 FILLER_0_33_125
*1154 FILLER_0_33_137
*1155 FILLER_0_33_149
*1156 FILLER_0_33_161
*1157 FILLER_0_33_167
*1158 FILLER_0_33_169
*1159 FILLER_0_33_18
*1160 FILLER_0_33_181
*1161 FILLER_0_33_193
*1162 FILLER_0_33_205
*1163 FILLER_0_33_217
*1164 FILLER_0_33_22
*1165 FILLER_0_33_223
*1166 FILLER_0_33_225
*1167 FILLER_0_33_237
*1168 FILLER_0_33_249
*1169 FILLER_0_33_261
*1170 FILLER_0_33_273
*1171 FILLER_0_33_279
*1172 FILLER_0_33_281
*1173 FILLER_0_33_293
*1174 FILLER_0_33_3
*1175 FILLER_0_33_305
*1176 FILLER_0_33_317
*1177 FILLER_0_33_329
*1178 FILLER_0_33_335
*1179 FILLER_0_33_337
*1180 FILLER_0_33_34
*1181 FILLER_0_33_349
*1182 FILLER_0_33_361
*1183 FILLER_0_33_373
*1184 FILLER_0_33_385
*1185 FILLER_0_33_391
*1186 FILLER_0_33_393
*1187 FILLER_0_33_46
*1188 FILLER_0_33_54
*1189 FILLER_0_33_57
*1190 FILLER_0_33_69
*1191 FILLER_0_33_81
*1192 FILLER_0_33_93
*1193 FILLER_0_34_109
*1194 FILLER_0_34_12
*1195 FILLER_0_34_121
*1196 FILLER_0_34_133
*1197 FILLER_0_34_139
*1198 FILLER_0_34_141
*1199 FILLER_0_34_153
*1200 FILLER_0_34_165
*1201 FILLER_0_34_177
*1202 FILLER_0_34_189
*1203 FILLER_0_34_195
*1204 FILLER_0_34_197
*1205 FILLER_0_34_209
*1206 FILLER_0_34_221
*1207 FILLER_0_34_233
*1208 FILLER_0_34_24
*1209 FILLER_0_34_245
*1210 FILLER_0_34_251
*1211 FILLER_0_34_253
*1212 FILLER_0_34_265
*1213 FILLER_0_34_277
*1214 FILLER_0_34_289
*1215 FILLER_0_34_29
*1216 FILLER_0_34_3
*1217 FILLER_0_34_301
*1218 FILLER_0_34_307
*1219 FILLER_0_34_309
*1220 FILLER_0_34_321
*1221 FILLER_0_34_333
*1222 FILLER_0_34_345
*1223 FILLER_0_34_357
*1224 FILLER_0_34_363
*1225 FILLER_0_34_365
*1226 FILLER_0_34_377
*1227 FILLER_0_34_389
*1228 FILLER_0_34_401
*1229 FILLER_0_34_41
*1230 FILLER_0_34_53
*1231 FILLER_0_34_65
*1232 FILLER_0_34_77
*1233 FILLER_0_34_83
*1234 FILLER_0_34_85
*1235 FILLER_0_34_97
*1236 FILLER_0_35_105
*1237 FILLER_0_35_111
*1238 FILLER_0_35_113
*1239 FILLER_0_35_125
*1240 FILLER_0_35_137
*1241 FILLER_0_35_149
*1242 FILLER_0_35_15
*1243 FILLER_0_35_161
*1244 FILLER_0_35_167
*1245 FILLER_0_35_169
*1246 FILLER_0_35_181
*1247 FILLER_0_35_193
*1248 FILLER_0_35_205
*1249 FILLER_0_35_217
*1250 FILLER_0_35_223
*1251 FILLER_0_35_225
*1252 FILLER_0_35_237
*1253 FILLER_0_35_249
*1254 FILLER_0_35_261
*1255 FILLER_0_35_27
*1256 FILLER_0_35_273
*1257 FILLER_0_35_279
*1258 FILLER_0_35_281
*1259 FILLER_0_35_293
*1260 FILLER_0_35_3
*1261 FILLER_0_35_305
*1262 FILLER_0_35_317
*1263 FILLER_0_35_329
*1264 FILLER_0_35_335
*1265 FILLER_0_35_337
*1266 FILLER_0_35_349
*1267 FILLER_0_35_361
*1268 FILLER_0_35_373
*1269 FILLER_0_35_385
*1270 FILLER_0_35_39
*1271 FILLER_0_35_391
*1272 FILLER_0_35_393
*1273 FILLER_0_35_405
*1274 FILLER_0_35_51
*1275 FILLER_0_35_55
*1276 FILLER_0_35_57
*1277 FILLER_0_35_69
*1278 FILLER_0_35_81
*1279 FILLER_0_35_93
*1280 FILLER_0_36_109
*1281 FILLER_0_36_121
*1282 FILLER_0_36_133
*1283 FILLER_0_36_139
*1284 FILLER_0_36_141
*1285 FILLER_0_36_15
*1286 FILLER_0_36_153
*1287 FILLER_0_36_165
*1288 FILLER_0_36_177
*1289 FILLER_0_36_189
*1290 FILLER_0_36_195
*1291 FILLER_0_36_197
*1292 FILLER_0_36_209
*1293 FILLER_0_36_221
*1294 FILLER_0_36_233
*1295 FILLER_0_36_245
*1296 FILLER_0_36_251
*1297 FILLER_0_36_253
*1298 FILLER_0_36_265
*1299 FILLER_0_36_27
*1300 FILLER_0_36_277
*1301 FILLER_0_36_289
*1302 FILLER_0_36_29
*1303 FILLER_0_36_3
*1304 FILLER_0_36_301
*1305 FILLER_0_36_307
*1306 FILLER_0_36_309
*1307 FILLER_0_36_321
*1308 FILLER_0_36_333
*1309 FILLER_0_36_345
*1310 FILLER_0_36_357
*1311 FILLER_0_36_363
*1312 FILLER_0_36_365
*1313 FILLER_0_36_377
*1314 FILLER_0_36_389
*1315 FILLER_0_36_401
*1316 FILLER_0_36_41
*1317 FILLER_0_36_53
*1318 FILLER_0_36_65
*1319 FILLER_0_36_77
*1320 FILLER_0_36_83
*1321 FILLER_0_36_85
*1322 FILLER_0_36_97
*1323 FILLER_0_37_105
*1324 FILLER_0_37_111
*1325 FILLER_0_37_113
*1326 FILLER_0_37_125
*1327 FILLER_0_37_137
*1328 FILLER_0_37_149
*1329 FILLER_0_37_15
*1330 FILLER_0_37_161
*1331 FILLER_0_37_167
*1332 FILLER_0_37_169
*1333 FILLER_0_37_181
*1334 FILLER_0_37_193
*1335 FILLER_0_37_205
*1336 FILLER_0_37_217
*1337 FILLER_0_37_223
*1338 FILLER_0_37_225
*1339 FILLER_0_37_237
*1340 FILLER_0_37_249
*1341 FILLER_0_37_261
*1342 FILLER_0_37_27
*1343 FILLER_0_37_273
*1344 FILLER_0_37_279
*1345 FILLER_0_37_281
*1346 FILLER_0_37_293
*1347 FILLER_0_37_3
*1348 FILLER_0_37_305
*1349 FILLER_0_37_317
*1350 FILLER_0_37_329
*1351 FILLER_0_37_335
*1352 FILLER_0_37_337
*1353 FILLER_0_37_349
*1354 FILLER_0_37_361
*1355 FILLER_0_37_373
*1356 FILLER_0_37_385
*1357 FILLER_0_37_39
*1358 FILLER_0_37_391
*1359 FILLER_0_37_393
*1360 FILLER_0_37_405
*1361 FILLER_0_37_51
*1362 FILLER_0_37_55
*1363 FILLER_0_37_57
*1364 FILLER_0_37_69
*1365 FILLER_0_37_81
*1366 FILLER_0_37_93
*1367 FILLER_0_38_109
*1368 FILLER_0_38_121
*1369 FILLER_0_38_133
*1370 FILLER_0_38_139
*1371 FILLER_0_38_141
*1372 FILLER_0_38_15
*1373 FILLER_0_38_153
*1374 FILLER_0_38_165
*1375 FILLER_0_38_177
*1376 FILLER_0_38_189
*1377 FILLER_0_38_195
*1378 FILLER_0_38_197
*1379 FILLER_0_38_209
*1380 FILLER_0_38_221
*1381 FILLER_0_38_233
*1382 FILLER_0_38_245
*1383 FILLER_0_38_251
*1384 FILLER_0_38_253
*1385 FILLER_0_38_265
*1386 FILLER_0_38_27
*1387 FILLER_0_38_277
*1388 FILLER_0_38_289
*1389 FILLER_0_38_29
*1390 FILLER_0_38_3
*1391 FILLER_0_38_301
*1392 FILLER_0_38_307
*1393 FILLER_0_38_309
*1394 FILLER_0_38_321
*1395 FILLER_0_38_333
*1396 FILLER_0_38_345
*1397 FILLER_0_38_357
*1398 FILLER_0_38_363
*1399 FILLER_0_38_365
*1400 FILLER_0_38_377
*1401 FILLER_0_38_389
*1402 FILLER_0_38_401
*1403 FILLER_0_38_41
*1404 FILLER_0_38_53
*1405 FILLER_0_38_65
*1406 FILLER_0_38_77
*1407 FILLER_0_38_83
*1408 FILLER_0_38_85
*1409 FILLER_0_38_97
*1410 FILLER_0_39_105
*1411 FILLER_0_39_111
*1412 FILLER_0_39_113
*1413 FILLER_0_39_125
*1414 FILLER_0_39_137
*1415 FILLER_0_39_149
*1416 FILLER_0_39_161
*1417 FILLER_0_39_167
*1418 FILLER_0_39_169
*1419 FILLER_0_39_18
*1420 FILLER_0_39_181
*1421 FILLER_0_39_193
*1422 FILLER_0_39_205
*1423 FILLER_0_39_217
*1424 FILLER_0_39_223
*1425 FILLER_0_39_225
*1426 FILLER_0_39_237
*1427 FILLER_0_39_249
*1428 FILLER_0_39_261
*1429 FILLER_0_39_273
*1430 FILLER_0_39_279
*1431 FILLER_0_39_281
*1432 FILLER_0_39_293